1

   Abaqus 2025                                  Date 24-12ÔÂ-2025   Time 01:35:53
   For use by Supplied by Team-SolidSQUAD under license from Dassault Systemes or its subsidiary.

                                                                                 
                                                                                 
 STEP    1     INCREMENT     1     STEP TIME    0.00    


                        S T E P       1     S T A T I C   A N A L Y S I S


                                                                                          

     AUTOMATIC TIME CONTROL WITH -
          A SUGGESTED INITIAL TIME INCREMENT OF                1.000E-02
          AND A TOTAL TIME PERIOD OF                           1.000E-02
          THE MINIMUM TIME INCREMENT ALLOWED IS                1.000E-08
          THE MAXIMUM TIME INCREMENT ALLOWED IS                1.000E-02

     LINEAR EQUATION SOLVER TYPE         DIRECT SPARSE

 CONVERGENCE TOLERANCE PARAMETERS FOR FORCE    
     CRITERION FOR RESIDUAL FORCE     FOR A NONLINEAR PROBLEM          5.000E-03
     CRITERION FOR DISP.    CORRECTION IN A NONLINEAR PROBLEM          1.000E-02
     INITIAL VALUE OF TIME AVERAGE FORCE                               1.000E-02
     AVERAGE FORCE     IS TIME AVERAGE FORCE    
     ALTERNATE CRIT. FOR RESIDUAL FORCE     FOR A NONLINEAR PROBLEM    2.000E-02
     CRITERION FOR ZERO FORCE     RELATIVE TO TIME AVRG. FORCE         1.000E-05
     CRITERION FOR RESIDUAL FORCE     WHEN THERE IS ZERO FLUX          1.000E-05
     CRITERION FOR DISP.    CORRECTION WHEN THERE IS ZERO FLUX         1.000E-03
     CRITERION FOR RESIDUAL FORCE     FOR A LINEAR INCREMENT           1.000E-08
     FIELD CONVERSION RATIO                                             1.00    
     CRITERION FOR ZERO FORCE     REL. TO TIME AVRG. MAX. FORCE        1.000E-05
     CRITERION FOR ZERO DISP.    RELATIVE TO CHARACTERISTIC LENGTH     1.000E-08

     VOLUMETRIC STRAIN COMPATIBILITY TOLERANCE FOR HYBRID SOLIDS       1.000E-05
     AXIAL STRAIN COMPATIBILITY TOLERANCE FOR HYBRID BEAMS             1.000E-05
     TRANS. SHEAR STRAIN COMPATIBILITY TOLERANCE FOR HYBRID BEAMS      1.000E-05
     SOFT CONTACT CONSTRAINT COMPATIBILITY TOLERANCE FOR P>P0          5.000E-03
     SOFT CONTACT CONSTRAINT COMPATIBILITY TOLERANCE FOR P=0.0         0.100    
     CONTACT FORCE ERROR TOLERANCE FOR CONVERT SDI=YES                 1.00    
     DISPLACEMENT COMPATIBILITY TOLERANCE FOR DCOUP ELEMENTS           1.000E-05
     ROTATION COMPATIBILITY TOLERANCE FOR DCOUP ELEMENTS               1.000E-05

 EQUILIBRIUM WILL BE CHECKED FOR SEVERE DISCONTINUITY ITERATIONS

 TIME INCREMENTATION CONTROL PARAMETERS:
     FIRST EQUILIBRIUM ITERATION FOR CONSECUTIVE DIVERGENCE CHECK              4
     EQUILIBRIUM ITERATION AT WHICH LOG. CONVERGENCE RATE CHECK BEGINS         8
     EQUILIBRIUM ITERATION AFTER WHICH ALTERNATE RESIDUAL IS USED              9
     MAXIMUM EQUILIBRIUM ITERATIONS ALLOWED                                   16
     EQUILIBRIUM ITERATION COUNT FOR CUT-BACK IN NEXT INCREMENT               10
     MAXIMUM EQUILIB. ITERS IN TWO INCREMENTS FOR TIME INCREMENT INCREASE      4
     MAXIMUM ITERATIONS FOR SEVERE DISCONTINUITIES                            50
     MAXIMUM ATTEMPTS ALLOWED IN AN INCREMENT                                  5
     MAXIMUM DISCON. ITERS IN TWO INCREMENTS FOR TIME INCREMENT INCREASE      50
     MAXIMUM CONTACT AUGMENTATIONS FOR *SURFACE BEHAVIOR,AUGMENTED LAGRANGE   50
     CUT-BACK FACTOR AFTER DIVERGENCE                                 0.2500    
     CUT-BACK FACTOR FOR TOO SLOW CONVERGENCE                         0.5000    
     CUT-BACK FACTOR AFTER TOO MANY EQUILIBRIUM ITERATIONS            0.7500    
     CUT-BACK FACTOR AFTER TOO MANY SEVERE DISCONTINUITY ITERATIONS   0.2500    
     CUT-BACK FACTOR AFTER PROBLEMS IN ELEMENT ASSEMBLY               0.2500    
     INCREASE FACTOR AFTER TWO INCREMENTS THAT CONVERGE QUICKLY        1.500    
     MAX. TIME INCREMENT INCREASE FACTOR ALLOWED                       1.500    
     MAX. TIME INCREMENT INCREASE FACTOR ALLOWED (DYNAMICS)            1.250    
     MAX. TIME INCREMENT INCREASE FACTOR ALLOWED (DIFFUSION)           2.000    
     MINIMUM TIME INCREMENT RATIO FOR EXTRAPOLATION TO OCCUR          0.1000    
     MAX. RATIO OF TIME INCREMENT TO STABILITY LIMIT                   1.000    
     FRACTION OF STABILITY LIMIT FOR NEW TIME INCREMENT               0.9500    
     TIME INCREMENT INCREASE FACTOR BEFORE A TIME POINT                1.000    
     GLOBAL STABILIZATION CONTROL IS NOT USED

          PRINT OF INCREMENT NUMBER, TIME, ETC., EVERY    1  INCREMENTS

     THE MAXIMUM NUMBER OF INCREMENTS IN THIS STEP IS                    1000

          UNSYMMETRIC MATRIX STORAGE AND SOLUTION WILL BE USED

     LINEAR EXTRAPOLATION WILL BE USED

     CHARACTERISTIC ELEMENT LENGTH      1.00    

     DETAILS REGARDING ACTUAL SOLUTION WAVEFRONT REQUESTED

     DETAILED OUTPUT OF DIAGNOSTICS TO DATABASE REQUESTED

     PRINT OF INCREMENT NUMBER, TIME, ETC., TO THE MESSAGE FILE EVERY     1  INCREMENTS

     COLLECTING MODEL CONSTRAINT INFORMATION FOR OVERCONSTRAINT CHECKS

     COLLECTING STEP CONSTRAINT INFORMATION FOR OVERCONSTRAINT CHECKS
 
     CONTACT INITIAL STRESS CALCULATIONS ARE TURNED ON IN ZEROINC


  INCREMENT     1 STARTS. ATTEMPT NUMBER  1, TIME INCREMENT  1.000E-02
 
	UNSYMMETRIC PURE THREAD-BASED DIRECT SPARSE SOLVER RUNNING ON
 	1 HOST x 1 MPI RANK PER HOST x 1 THREAD PER RANK
        NUMBER OF EQUATIONS:  24
        NUMBER OF RHS:        1
        NUMBER OF FLOPS:      9.248e+03
        SOLVER ELAPSED TIME:  36ms

               CONVERGENCE CHECKS FOR EQUILIBRIUM ITERATION     1


 AVERAGE FORCE                       12.5       TIME AVG. FORCE        12.5    
 LARGEST SCALED RESIDUAL FORCE     -9.104E-15   AT NODE          1   DOF  1
   INSTANCE: INSTANCE_SOIL                                                                   
  CORRESPONDING RESIDUAL FORCE     -9.104E-15
 LARGEST INCREMENT OF DISP.         1.092E-18   AT NODE          1   DOF  1
   INSTANCE: INSTANCE_SOIL                                                                   
 LARGEST CORRECTION TO DISP.        1.092E-18   AT NODE          1   DOF  1
   INSTANCE: INSTANCE_SOIL                                                                   
          THE FORCE     EQUILIBRIUM RESPONSE WAS LINEAR IN THIS INCREMENT

 ITERATION SUMMARY FOR THE INCREMENT:   1 TOTAL ITERATIONS, OF WHICH
   0 ARE SEVERE DISCONTINUITY ITERATIONS AND  1 ARE EQUILIBRIUM ITERATIONS.

 TIME INCREMENT COMPLETED  1.000E-02,  FRACTION OF STEP COMPLETED   1.00    
 STEP TIME COMPLETED       1.000E-02,  TOTAL TIME COMPLETED        1.000E-02
1

   Abaqus 2025                                  Date 24-12ÔÂ-2025   Time 01:35:53
   For use by Supplied by Team-SolidSQUAD under license from Dassault Systemes or its subsidiary.

                                                                                 
                                                                                 
 STEP    2     INCREMENT     1     STEP TIME    0.00    


                        S T E P       2     S T A T I C   A N A L Y S I S


                                                                                          

     AUTOMATIC TIME CONTROL WITH -
          A SUGGESTED INITIAL TIME INCREMENT OF                1.000E-06
          AND A TOTAL TIME PERIOD OF                            12.0    
          THE MINIMUM TIME INCREMENT ALLOWED IS                1.000E-08
          THE MAXIMUM TIME INCREMENT ALLOWED IS                6.000E-02

     LINEAR EQUATION SOLVER TYPE         DIRECT SPARSE

 CONVERGENCE TOLERANCE PARAMETERS FOR FORCE    
     CRITERION FOR RESIDUAL FORCE     FOR A NONLINEAR PROBLEM          5.000E-03
     CRITERION FOR DISP.    CORRECTION IN A NONLINEAR PROBLEM          1.000E-02
     INIT. VALUE OF TIME AVG. FORCE     IS TIME AVG. FORCE     IN PREVIOUS STEP
     AVERAGE FORCE     IS TIME AVERAGE FORCE    
     ALTERNATE CRIT. FOR RESIDUAL FORCE     FOR A NONLINEAR PROBLEM    2.000E-02
     CRITERION FOR ZERO FORCE     RELATIVE TO TIME AVRG. FORCE         1.000E-05
     CRITERION FOR RESIDUAL FORCE     WHEN THERE IS ZERO FLUX          1.000E-05
     CRITERION FOR DISP.    CORRECTION WHEN THERE IS ZERO FLUX         1.000E-03
     CRITERION FOR RESIDUAL FORCE     FOR A LINEAR INCREMENT           1.000E-08
     FIELD CONVERSION RATIO                                             1.00    
     CRITERION FOR ZERO FORCE     REL. TO TIME AVRG. MAX. FORCE        1.000E-05
     CRITERION FOR ZERO DISP.    RELATIVE TO CHARACTERISTIC LENGTH     1.000E-08

     VOLUMETRIC STRAIN COMPATIBILITY TOLERANCE FOR HYBRID SOLIDS       1.000E-05
     AXIAL STRAIN COMPATIBILITY TOLERANCE FOR HYBRID BEAMS             1.000E-05
     TRANS. SHEAR STRAIN COMPATIBILITY TOLERANCE FOR HYBRID BEAMS      1.000E-05
     SOFT CONTACT CONSTRAINT COMPATIBILITY TOLERANCE FOR P>P0          5.000E-03
     SOFT CONTACT CONSTRAINT COMPATIBILITY TOLERANCE FOR P=0.0         0.100    
     CONTACT FORCE ERROR TOLERANCE FOR CONVERT SDI=YES                 1.00    
     DISPLACEMENT COMPATIBILITY TOLERANCE FOR DCOUP ELEMENTS           1.000E-05
     ROTATION COMPATIBILITY TOLERANCE FOR DCOUP ELEMENTS               1.000E-05

 EQUILIBRIUM WILL BE CHECKED FOR SEVERE DISCONTINUITY ITERATIONS

 TIME INCREMENTATION CONTROL PARAMETERS:
     FIRST EQUILIBRIUM ITERATION FOR CONSECUTIVE DIVERGENCE CHECK              4
     EQUILIBRIUM ITERATION AT WHICH LOG. CONVERGENCE RATE CHECK BEGINS         8
     EQUILIBRIUM ITERATION AFTER WHICH ALTERNATE RESIDUAL IS USED              9
     MAXIMUM EQUILIBRIUM ITERATIONS ALLOWED                                   16
     EQUILIBRIUM ITERATION COUNT FOR CUT-BACK IN NEXT INCREMENT               10
     MAXIMUM EQUILIB. ITERS IN TWO INCREMENTS FOR TIME INCREMENT INCREASE      4
     MAXIMUM ITERATIONS FOR SEVERE DISCONTINUITIES                            50
     MAXIMUM ATTEMPTS ALLOWED IN AN INCREMENT                                  5
     MAXIMUM DISCON. ITERS IN TWO INCREMENTS FOR TIME INCREMENT INCREASE      50
     MAXIMUM CONTACT AUGMENTATIONS FOR *SURFACE BEHAVIOR,AUGMENTED LAGRANGE   50
     CUT-BACK FACTOR AFTER DIVERGENCE                                 0.2500    
     CUT-BACK FACTOR FOR TOO SLOW CONVERGENCE                         0.5000    
     CUT-BACK FACTOR AFTER TOO MANY EQUILIBRIUM ITERATIONS            0.7500    
     CUT-BACK FACTOR AFTER TOO MANY SEVERE DISCONTINUITY ITERATIONS   0.2500    
     CUT-BACK FACTOR AFTER PROBLEMS IN ELEMENT ASSEMBLY               0.2500    
     INCREASE FACTOR AFTER TWO INCREMENTS THAT CONVERGE QUICKLY        1.500    
     MAX. TIME INCREMENT INCREASE FACTOR ALLOWED                       1.500    
     MAX. TIME INCREMENT INCREASE FACTOR ALLOWED (DYNAMICS)            1.250    
     MAX. TIME INCREMENT INCREASE FACTOR ALLOWED (DIFFUSION)           2.000    
     MINIMUM TIME INCREMENT RATIO FOR EXTRAPOLATION TO OCCUR          0.1000    
     MAX. RATIO OF TIME INCREMENT TO STABILITY LIMIT                   1.000    
     FRACTION OF STABILITY LIMIT FOR NEW TIME INCREMENT               0.9500    
     TIME INCREMENT INCREASE FACTOR BEFORE A TIME POINT                1.000    
     GLOBAL STABILIZATION CONTROL IS NOT USED

          PRINT OF INCREMENT NUMBER, TIME, ETC., EVERY    1  INCREMENTS

     THE MAXIMUM NUMBER OF INCREMENTS IN THIS STEP IS                   10000

          LARGE DISPLACEMENT THEORY WILL BE USED

          UNSYMMETRIC MATRIX STORAGE AND SOLUTION WILL BE USED

     LINEAR EXTRAPOLATION WILL BE USED

     CHARACTERISTIC ELEMENT LENGTH      1.00    

     DETAILS REGARDING ACTUAL SOLUTION WAVEFRONT REQUESTED

     DETAILED OUTPUT OF DIAGNOSTICS TO DATABASE REQUESTED

     PRINT OF INCREMENT NUMBER, TIME, ETC., TO THE MESSAGE FILE EVERY     1  INCREMENTS

     COLLECTING STEP CONSTRAINT INFORMATION FOR OVERCONSTRAINT CHECKS


  INCREMENT     1 STARTS. ATTEMPT NUMBER  1, TIME INCREMENT  1.000E-06
 
	UNSYMMETRIC PURE THREAD-BASED DIRECT SPARSE SOLVER RUNNING ON
 	1 HOST x 1 MPI RANK PER HOST x 1 THREAD PER RANK
        NUMBER OF EQUATIONS:  24
        NUMBER OF RHS:        1
        NUMBER OF FLOPS:      9.248e+03
        SOLVER ELAPSED TIME:  7ms

               CONVERGENCE CHECKS FOR EQUILIBRIUM ITERATION     1


 AVERAGE FORCE                       12.5       TIME AVG. FORCE        12.5    
 LARGEST SCALED RESIDUAL FORCE     -1.995E-07   AT NODE          5   DOF  2
   INSTANCE: INSTANCE_SOIL                                                                   
  CORRESPONDING RESIDUAL FORCE     -1.995E-07
 LARGEST INCREMENT OF DISP.        -1.000E-08   AT NODE          1   DOF  1
   INSTANCE: INSTANCE_SOIL                                                                   
 LARGEST CORRECTION TO DISP.       -1.000E-08   AT NODE          1   DOF  1
   INSTANCE: INSTANCE_SOIL                                                                   
          FORCE     EQUILIB. ACCEPTED BASED ON SMALL RESIDUAL AND SMALL MAGNITUDE
           OF THE INCREMENT OF DISPLACEMENT

 ITERATION SUMMARY FOR THE INCREMENT:   1 TOTAL ITERATIONS, OF WHICH
   0 ARE SEVERE DISCONTINUITY ITERATIONS AND  1 ARE EQUILIBRIUM ITERATIONS.

 TIME INCREMENT COMPLETED  1.000E-06,  FRACTION OF STEP COMPLETED  8.333E-08
 STEP TIME COMPLETED       1.000E-06,  TOTAL TIME COMPLETED        1.000E-02


  INCREMENT     2 STARTS. ATTEMPT NUMBER  1, TIME INCREMENT  1.000E-06
 
	UNSYMMETRIC PURE THREAD-BASED DIRECT SPARSE SOLVER RUNNING ON
 	1 HOST x 1 MPI RANK PER HOST x 1 THREAD PER RANK
        NUMBER OF EQUATIONS:  24
        NUMBER OF RHS:        1
        NUMBER OF FLOPS:      9.248e+03
        SOLVER ELAPSED TIME:  11ms

               CONVERGENCE CHECKS FOR EQUILIBRIUM ITERATION     1


 AVERAGE FORCE                       12.5       TIME AVG. FORCE        12.5    
 LARGEST SCALED RESIDUAL FORCE     -9.098E-10   AT NODE          1   DOF  2
   INSTANCE: INSTANCE_SOIL                                                                   
  CORRESPONDING RESIDUAL FORCE     -9.098E-10
 LARGEST INCREMENT OF DISP.        -1.000E-08   AT NODE          1   DOF  1
   INSTANCE: INSTANCE_SOIL                                                                   
 LARGEST CORRECTION TO DISP.       -1.820E-11   AT NODE          5   DOF  2
   INSTANCE: INSTANCE_SOIL                                                                   
          THE FORCE     EQUILIBRIUM RESPONSE WAS LINEAR IN THIS INCREMENT
          TIME INCREMENT MAY NOW INCREASE TO    1.500E-06

 ITERATION SUMMARY FOR THE INCREMENT:   1 TOTAL ITERATIONS, OF WHICH
   0 ARE SEVERE DISCONTINUITY ITERATIONS AND  1 ARE EQUILIBRIUM ITERATIONS.

 TIME INCREMENT COMPLETED  1.000E-06,  FRACTION OF STEP COMPLETED  1.667E-07
 STEP TIME COMPLETED       2.000E-06,  TOTAL TIME COMPLETED        1.000E-02


  INCREMENT     3 STARTS. ATTEMPT NUMBER  1, TIME INCREMENT  1.500E-06
 
	UNSYMMETRIC PURE THREAD-BASED DIRECT SPARSE SOLVER RUNNING ON
 	1 HOST x 1 MPI RANK PER HOST x 1 THREAD PER RANK
        NUMBER OF EQUATIONS:  24
        NUMBER OF RHS:        1
        NUMBER OF FLOPS:      9.248e+03
        SOLVER ELAPSED TIME:  12ms

               CONVERGENCE CHECKS FOR EQUILIBRIUM ITERATION     1


 AVERAGE FORCE                       12.5       TIME AVG. FORCE        12.5    
 LARGEST SCALED RESIDUAL FORCE      6.772E-10   AT NODE          5   DOF  3
   INSTANCE: INSTANCE_SOIL                                                                   
  CORRESPONDING RESIDUAL FORCE      6.772E-10
 LARGEST INCREMENT OF DISP.        -1.500E-08   AT NODE          4   DOF  1
   INSTANCE: INSTANCE_SOIL                                                                   
 LARGEST CORRECTION TO DISP.        1.354E-11   AT NODE          6   DOF  3
   INSTANCE: INSTANCE_SOIL                                                                   
          THE FORCE     EQUILIBRIUM RESPONSE WAS LINEAR IN THIS INCREMENT
          TIME INCREMENT MAY NOW INCREASE TO    2.250E-06

 ITERATION SUMMARY FOR THE INCREMENT:   1 TOTAL ITERATIONS, OF WHICH
   0 ARE SEVERE DISCONTINUITY ITERATIONS AND  1 ARE EQUILIBRIUM ITERATIONS.

 TIME INCREMENT COMPLETED  1.500E-06,  FRACTION OF STEP COMPLETED  2.917E-07
 STEP TIME COMPLETED       3.500E-06,  TOTAL TIME COMPLETED        1.000E-02


  INCREMENT     4 STARTS. ATTEMPT NUMBER  1, TIME INCREMENT  2.250E-06
 
	UNSYMMETRIC PURE THREAD-BASED DIRECT SPARSE SOLVER RUNNING ON
 	1 HOST x 1 MPI RANK PER HOST x 1 THREAD PER RANK
        NUMBER OF EQUATIONS:  24
        NUMBER OF RHS:        1
        NUMBER OF FLOPS:      9.248e+03
        SOLVER ELAPSED TIME:  12ms

               CONVERGENCE CHECKS FOR EQUILIBRIUM ITERATION     1


 AVERAGE FORCE                       12.5       TIME AVG. FORCE        12.5    
 LARGEST SCALED RESIDUAL FORCE      6.984E-12   AT NODE          1   DOF  2
   INSTANCE: INSTANCE_SOIL                                                                   
  CORRESPONDING RESIDUAL FORCE      6.984E-12
 LARGEST INCREMENT OF DISP.        -2.250E-08   AT NODE          1   DOF  1
   INSTANCE: INSTANCE_SOIL                                                                   
 LARGEST CORRECTION TO DISP.        1.395E-13   AT NODE          5   DOF  3
   INSTANCE: INSTANCE_SOIL                                                                   
          THE FORCE     EQUILIBRIUM RESPONSE WAS LINEAR IN THIS INCREMENT
          TIME INCREMENT MAY NOW INCREASE TO    3.375E-06

 ITERATION SUMMARY FOR THE INCREMENT:   1 TOTAL ITERATIONS, OF WHICH
   0 ARE SEVERE DISCONTINUITY ITERATIONS AND  1 ARE EQUILIBRIUM ITERATIONS.

 TIME INCREMENT COMPLETED  2.250E-06,  FRACTION OF STEP COMPLETED  4.792E-07
 STEP TIME COMPLETED       5.750E-06,  TOTAL TIME COMPLETED        1.001E-02


  INCREMENT     5 STARTS. ATTEMPT NUMBER  1, TIME INCREMENT  3.375E-06
 
	UNSYMMETRIC PURE THREAD-BASED DIRECT SPARSE SOLVER RUNNING ON
 	1 HOST x 1 MPI RANK PER HOST x 1 THREAD PER RANK
        NUMBER OF EQUATIONS:  24
        NUMBER OF RHS:        1
        NUMBER OF FLOPS:      9.248e+03
        SOLVER ELAPSED TIME:  12ms

               CONVERGENCE CHECKS FOR EQUILIBRIUM ITERATION     1


 AVERAGE FORCE                       12.5       TIME AVG. FORCE        12.5    
 LARGEST SCALED RESIDUAL FORCE     -2.276E-12   AT NODE          2   DOF  3
   INSTANCE: INSTANCE_SOIL                                                                   
  CORRESPONDING RESIDUAL FORCE     -2.276E-12
 LARGEST INCREMENT OF DISP.        -3.375E-08   AT NODE          1   DOF  1
   INSTANCE: INSTANCE_SOIL                                                                   
 LARGEST CORRECTION TO DISP.       -4.542E-14   AT NODE          3   DOF  2
   INSTANCE: INSTANCE_SOIL                                                                   
          THE FORCE     EQUILIBRIUM RESPONSE WAS LINEAR IN THIS INCREMENT
          TIME INCREMENT MAY NOW INCREASE TO    5.062E-06

 ITERATION SUMMARY FOR THE INCREMENT:   1 TOTAL ITERATIONS, OF WHICH
   0 ARE SEVERE DISCONTINUITY ITERATIONS AND  1 ARE EQUILIBRIUM ITERATIONS.

 TIME INCREMENT COMPLETED  3.375E-06,  FRACTION OF STEP COMPLETED  7.604E-07
 STEP TIME COMPLETED       9.125E-06,  TOTAL TIME COMPLETED        1.001E-02


  INCREMENT     6 STARTS. ATTEMPT NUMBER  1, TIME INCREMENT  5.062E-06
 
	UNSYMMETRIC PURE THREAD-BASED DIRECT SPARSE SOLVER RUNNING ON
 	1 HOST x 1 MPI RANK PER HOST x 1 THREAD PER RANK
        NUMBER OF EQUATIONS:  24
        NUMBER OF RHS:        1
        NUMBER OF FLOPS:      9.248e+03
        SOLVER ELAPSED TIME:  12ms

               CONVERGENCE CHECKS FOR EQUILIBRIUM ITERATION     1


 AVERAGE FORCE                       12.5       TIME AVG. FORCE        12.5    
 LARGEST SCALED RESIDUAL FORCE     -3.286E-14   AT NODE          1   DOF  2
   INSTANCE: INSTANCE_SOIL                                                                   
  CORRESPONDING RESIDUAL FORCE     -3.286E-14
 LARGEST INCREMENT OF DISP.        -5.063E-08   AT NODE          1   DOF  1
   INSTANCE: INSTANCE_SOIL                                                                   
 LARGEST CORRECTION TO DISP.       -5.024E-16   AT NODE          6   DOF  3
   INSTANCE: INSTANCE_SOIL                                                                   
          THE FORCE     EQUILIBRIUM RESPONSE WAS LINEAR IN THIS INCREMENT
          TIME INCREMENT MAY NOW INCREASE TO    7.594E-06

 ITERATION SUMMARY FOR THE INCREMENT:   1 TOTAL ITERATIONS, OF WHICH
   0 ARE SEVERE DISCONTINUITY ITERATIONS AND  1 ARE EQUILIBRIUM ITERATIONS.

 TIME INCREMENT COMPLETED  5.062E-06,  FRACTION OF STEP COMPLETED  1.182E-06
 STEP TIME COMPLETED       1.419E-05,  TOTAL TIME COMPLETED        1.001E-02


  INCREMENT     7 STARTS. ATTEMPT NUMBER  1, TIME INCREMENT  7.594E-06
 
	UNSYMMETRIC PURE THREAD-BASED DIRECT SPARSE SOLVER RUNNING ON
 	1 HOST x 1 MPI RANK PER HOST x 1 THREAD PER RANK
        NUMBER OF EQUATIONS:  24
        NUMBER OF RHS:        1
        NUMBER OF FLOPS:      9.248e+03
        SOLVER ELAPSED TIME:  12ms

               CONVERGENCE CHECKS FOR EQUILIBRIUM ITERATION     1


 AVERAGE FORCE                       12.5       TIME AVG. FORCE        12.5    
 LARGEST SCALED RESIDUAL FORCE      3.664E-14   AT NODE          5   DOF  2
   INSTANCE: INSTANCE_SOIL                                                                   
  CORRESPONDING RESIDUAL FORCE      3.664E-14
 LARGEST INCREMENT OF DISP.        -7.594E-08   AT NODE          4   DOF  1
   INSTANCE: INSTANCE_SOIL                                                                   
 LARGEST CORRECTION TO DISP.        6.808E-16   AT NODE          1   DOF  3
   INSTANCE: INSTANCE_SOIL                                                                   
          THE FORCE     EQUILIBRIUM RESPONSE WAS LINEAR IN THIS INCREMENT
          TIME INCREMENT MAY NOW INCREASE TO    1.139E-05

 ITERATION SUMMARY FOR THE INCREMENT:   1 TOTAL ITERATIONS, OF WHICH
   0 ARE SEVERE DISCONTINUITY ITERATIONS AND  1 ARE EQUILIBRIUM ITERATIONS.

 TIME INCREMENT COMPLETED  7.594E-06,  FRACTION OF STEP COMPLETED  1.815E-06
 STEP TIME COMPLETED       2.178E-05,  TOTAL TIME COMPLETED        1.002E-02


  INCREMENT     8 STARTS. ATTEMPT NUMBER  1, TIME INCREMENT  1.139E-05
 
	UNSYMMETRIC PURE THREAD-BASED DIRECT SPARSE SOLVER RUNNING ON
 	1 HOST x 1 MPI RANK PER HOST x 1 THREAD PER RANK
        NUMBER OF EQUATIONS:  24
        NUMBER OF RHS:        1
        NUMBER OF FLOPS:      9.248e+03
        SOLVER ELAPSED TIME:  12ms

               CONVERGENCE CHECKS FOR EQUILIBRIUM ITERATION     1


 AVERAGE FORCE                       12.5       TIME AVG. FORCE        12.5    
 LARGEST SCALED RESIDUAL FORCE      7.283E-14   AT NODE          3   DOF  2
   INSTANCE: INSTANCE_SOIL                                                                   
  CORRESPONDING RESIDUAL FORCE      7.283E-14
 LARGEST INCREMENT OF DISP.        -1.139E-07   AT NODE          1   DOF  1
   INSTANCE: INSTANCE_SOIL                                                                   
 LARGEST CORRECTION TO DISP.        1.194E-15   AT NODE          2   DOF  3
   INSTANCE: INSTANCE_SOIL                                                                   
          THE FORCE     EQUILIBRIUM RESPONSE WAS LINEAR IN THIS INCREMENT
          TIME INCREMENT MAY NOW INCREASE TO    1.709E-05

 ITERATION SUMMARY FOR THE INCREMENT:   1 TOTAL ITERATIONS, OF WHICH
   0 ARE SEVERE DISCONTINUITY ITERATIONS AND  1 ARE EQUILIBRIUM ITERATIONS.

 TIME INCREMENT COMPLETED  1.139E-05,  FRACTION OF STEP COMPLETED  2.764E-06
 STEP TIME COMPLETED       3.317E-05,  TOTAL TIME COMPLETED        1.003E-02


  INCREMENT     9 STARTS. ATTEMPT NUMBER  1, TIME INCREMENT  1.709E-05
 
	UNSYMMETRIC PURE THREAD-BASED DIRECT SPARSE SOLVER RUNNING ON
 	1 HOST x 1 MPI RANK PER HOST x 1 THREAD PER RANK
        NUMBER OF EQUATIONS:  24
        NUMBER OF RHS:        1
        NUMBER OF FLOPS:      9.248e+03
        SOLVER ELAPSED TIME:  12ms

               CONVERGENCE CHECKS FOR EQUILIBRIUM ITERATION     1


 AVERAGE FORCE                       12.5       TIME AVG. FORCE        12.5    
 LARGEST SCALED RESIDUAL FORCE      1.430E-13   AT NODE          1   DOF  2
   INSTANCE: INSTANCE_SOIL                                                                   
  CORRESPONDING RESIDUAL FORCE      1.430E-13
 LARGEST INCREMENT OF DISP.        -1.709E-07   AT NODE          1   DOF  1
   INSTANCE: INSTANCE_SOIL                                                                   
 LARGEST CORRECTION TO DISP.        2.678E-15   AT NODE          3   DOF  2
   INSTANCE: INSTANCE_SOIL                                                                   
          THE FORCE     EQUILIBRIUM RESPONSE WAS LINEAR IN THIS INCREMENT
          TIME INCREMENT MAY NOW INCREASE TO    2.563E-05

 ITERATION SUMMARY FOR THE INCREMENT:   1 TOTAL ITERATIONS, OF WHICH
   0 ARE SEVERE DISCONTINUITY ITERATIONS AND  1 ARE EQUILIBRIUM ITERATIONS.

 TIME INCREMENT COMPLETED  1.709E-05,  FRACTION OF STEP COMPLETED  4.188E-06
 STEP TIME COMPLETED       5.026E-05,  TOTAL TIME COMPLETED        1.005E-02


  INCREMENT    10 STARTS. ATTEMPT NUMBER  1, TIME INCREMENT  2.563E-05
 
	UNSYMMETRIC PURE THREAD-BASED DIRECT SPARSE SOLVER RUNNING ON
 	1 HOST x 1 MPI RANK PER HOST x 1 THREAD PER RANK
        NUMBER OF EQUATIONS:  24
        NUMBER OF RHS:        1
        NUMBER OF FLOPS:      9.248e+03
        SOLVER ELAPSED TIME:  12ms

               CONVERGENCE CHECKS FOR EQUILIBRIUM ITERATION     1


 AVERAGE FORCE                       12.5       TIME AVG. FORCE        12.5    
 LARGEST SCALED RESIDUAL FORCE      3.100E-13   AT NODE          6   DOF  3
   INSTANCE: INSTANCE_SOIL                                                                   
  CORRESPONDING RESIDUAL FORCE      3.100E-13
 LARGEST INCREMENT OF DISP.        -2.563E-07   AT NODE          1   DOF  1
   INSTANCE: INSTANCE_SOIL                                                                   
 LARGEST CORRECTION TO DISP.        6.021E-15   AT NODE          1   DOF  2
   INSTANCE: INSTANCE_SOIL                                                                   
          THE FORCE     EQUILIBRIUM RESPONSE WAS LINEAR IN THIS INCREMENT
          TIME INCREMENT MAY NOW INCREASE TO    3.844E-05

 ITERATION SUMMARY FOR THE INCREMENT:   1 TOTAL ITERATIONS, OF WHICH
   0 ARE SEVERE DISCONTINUITY ITERATIONS AND  1 ARE EQUILIBRIUM ITERATIONS.

 TIME INCREMENT COMPLETED  2.563E-05,  FRACTION OF STEP COMPLETED  6.324E-06
 STEP TIME COMPLETED       7.589E-05,  TOTAL TIME COMPLETED        1.008E-02


  INCREMENT    11 STARTS. ATTEMPT NUMBER  1, TIME INCREMENT  3.844E-05
 
	UNSYMMETRIC PURE THREAD-BASED DIRECT SPARSE SOLVER RUNNING ON
 	1 HOST x 1 MPI RANK PER HOST x 1 THREAD PER RANK
        NUMBER OF EQUATIONS:  24
        NUMBER OF RHS:        1
        NUMBER OF FLOPS:      9.248e+03
        SOLVER ELAPSED TIME:  12ms

               CONVERGENCE CHECKS FOR EQUILIBRIUM ITERATION     1


 AVERAGE FORCE                       12.5       TIME AVG. FORCE        12.5    
 LARGEST SCALED RESIDUAL FORCE      6.857E-13   AT NODE          3   DOF  2
   INSTANCE: INSTANCE_SOIL                                                                   
  CORRESPONDING RESIDUAL FORCE      6.857E-13
 LARGEST INCREMENT OF DISP.        -3.844E-07   AT NODE          1   DOF  1
   INSTANCE: INSTANCE_SOIL                                                                   
 LARGEST CORRECTION TO DISP.        1.354E-14   AT NODE          5   DOF  2
   INSTANCE: INSTANCE_SOIL                                                                   
          THE FORCE     EQUILIBRIUM RESPONSE WAS LINEAR IN THIS INCREMENT
          TIME INCREMENT MAY NOW INCREASE TO    5.767E-05

 ITERATION SUMMARY FOR THE INCREMENT:   1 TOTAL ITERATIONS, OF WHICH
   0 ARE SEVERE DISCONTINUITY ITERATIONS AND  1 ARE EQUILIBRIUM ITERATIONS.

 TIME INCREMENT COMPLETED  3.844E-05,  FRACTION OF STEP COMPLETED  9.528E-06
 STEP TIME COMPLETED       1.143E-04,  TOTAL TIME COMPLETED        1.011E-02


  INCREMENT    12 STARTS. ATTEMPT NUMBER  1, TIME INCREMENT  5.767E-05
 
	UNSYMMETRIC PURE THREAD-BASED DIRECT SPARSE SOLVER RUNNING ON
 	1 HOST x 1 MPI RANK PER HOST x 1 THREAD PER RANK
        NUMBER OF EQUATIONS:  24
        NUMBER OF RHS:        1
        NUMBER OF FLOPS:      9.248e+03
        SOLVER ELAPSED TIME:  12ms

               CONVERGENCE CHECKS FOR EQUILIBRIUM ITERATION     1


 AVERAGE FORCE                       12.5       TIME AVG. FORCE        12.5    
 LARGEST SCALED RESIDUAL FORCE      1.537E-12   AT NODE          7   DOF  2
   INSTANCE: INSTANCE_SOIL                                                                   
  CORRESPONDING RESIDUAL FORCE      1.537E-12
 LARGEST INCREMENT OF DISP.        -5.767E-07   AT NODE          1   DOF  1
   INSTANCE: INSTANCE_SOIL                                                                   
 LARGEST CORRECTION TO DISP.        3.047E-14   AT NODE          3   DOF  2
   INSTANCE: INSTANCE_SOIL                                                                   
          THE FORCE     EQUILIBRIUM RESPONSE WAS LINEAR IN THIS INCREMENT
          TIME INCREMENT MAY NOW INCREASE TO    8.650E-05

 ITERATION SUMMARY FOR THE INCREMENT:   1 TOTAL ITERATIONS, OF WHICH
   0 ARE SEVERE DISCONTINUITY ITERATIONS AND  1 ARE EQUILIBRIUM ITERATIONS.

 TIME INCREMENT COMPLETED  5.767E-05,  FRACTION OF STEP COMPLETED  1.433E-05
 STEP TIME COMPLETED       1.720E-04,  TOTAL TIME COMPLETED        1.017E-02


  INCREMENT    13 STARTS. ATTEMPT NUMBER  1, TIME INCREMENT  8.650E-05
 
	UNSYMMETRIC PURE THREAD-BASED DIRECT SPARSE SOLVER RUNNING ON
 	1 HOST x 1 MPI RANK PER HOST x 1 THREAD PER RANK
        NUMBER OF EQUATIONS:  24
        NUMBER OF RHS:        1
        NUMBER OF FLOPS:      9.248e+03
        SOLVER ELAPSED TIME:  12ms

               CONVERGENCE CHECKS FOR EQUILIBRIUM ITERATION     1


 AVERAGE FORCE                       12.5       TIME AVG. FORCE        12.5    
 LARGEST SCALED RESIDUAL FORCE      3.430E-12   AT NODE          5   DOF  3
   INSTANCE: INSTANCE_SOIL                                                                   
  CORRESPONDING RESIDUAL FORCE      3.430E-12
 LARGEST INCREMENT OF DISP.        -8.650E-07   AT NODE          2   DOF  1
   INSTANCE: INSTANCE_SOIL                                                                   
 LARGEST CORRECTION TO DISP.        6.856E-14   AT NODE          2   DOF  3
   INSTANCE: INSTANCE_SOIL                                                                   
          THE FORCE     EQUILIBRIUM RESPONSE WAS LINEAR IN THIS INCREMENT
          TIME INCREMENT MAY NOW INCREASE TO    1.297E-04

 ITERATION SUMMARY FOR THE INCREMENT:   1 TOTAL ITERATIONS, OF WHICH
   0 ARE SEVERE DISCONTINUITY ITERATIONS AND  1 ARE EQUILIBRIUM ITERATIONS.

 TIME INCREMENT COMPLETED  8.650E-05,  FRACTION OF STEP COMPLETED  2.154E-05
 STEP TIME COMPLETED       2.585E-04,  TOTAL TIME COMPLETED        1.026E-02


  INCREMENT    14 STARTS. ATTEMPT NUMBER  1, TIME INCREMENT  1.297E-04
 
	UNSYMMETRIC PURE THREAD-BASED DIRECT SPARSE SOLVER RUNNING ON
 	1 HOST x 1 MPI RANK PER HOST x 1 THREAD PER RANK
        NUMBER OF EQUATIONS:  24
        NUMBER OF RHS:        1
        NUMBER OF FLOPS:      9.248e+03
        SOLVER ELAPSED TIME:  12ms

               CONVERGENCE CHECKS FOR EQUILIBRIUM ITERATION     1


 AVERAGE FORCE                       12.5       TIME AVG. FORCE        12.5    
 LARGEST SCALED RESIDUAL FORCE      7.721E-12   AT NODE          5   DOF  2
   INSTANCE: INSTANCE_SOIL                                                                   
  CORRESPONDING RESIDUAL FORCE      7.721E-12
 LARGEST INCREMENT OF DISP.        -1.297E-06   AT NODE          3   DOF  1
   INSTANCE: INSTANCE_SOIL                                                                   
 LARGEST CORRECTION TO DISP.        1.543E-13   AT NODE          5   DOF  2
   INSTANCE: INSTANCE_SOIL                                                                   
          THE FORCE     EQUILIBRIUM RESPONSE WAS LINEAR IN THIS INCREMENT
          TIME INCREMENT MAY NOW INCREASE TO    1.946E-04

 ITERATION SUMMARY FOR THE INCREMENT:   1 TOTAL ITERATIONS, OF WHICH
   0 ARE SEVERE DISCONTINUITY ITERATIONS AND  1 ARE EQUILIBRIUM ITERATIONS.

 TIME INCREMENT COMPLETED  1.297E-04,  FRACTION OF STEP COMPLETED  3.235E-05
 STEP TIME COMPLETED       3.882E-04,  TOTAL TIME COMPLETED        1.039E-02


  INCREMENT    15 STARTS. ATTEMPT NUMBER  1, TIME INCREMENT  1.946E-04
 
	UNSYMMETRIC PURE THREAD-BASED DIRECT SPARSE SOLVER RUNNING ON
 	1 HOST x 1 MPI RANK PER HOST x 1 THREAD PER RANK
        NUMBER OF EQUATIONS:  24
        NUMBER OF RHS:        1
        NUMBER OF FLOPS:      9.248e+03
        SOLVER ELAPSED TIME:  12ms

               CONVERGENCE CHECKS FOR EQUILIBRIUM ITERATION     1


 AVERAGE FORCE                       12.5       TIME AVG. FORCE        12.5    
 LARGEST SCALED RESIDUAL FORCE      1.735E-11   AT NODE          1   DOF  3
   INSTANCE: INSTANCE_SOIL                                                                   
  CORRESPONDING RESIDUAL FORCE      1.735E-11
 LARGEST INCREMENT OF DISP.        -1.946E-06   AT NODE          3   DOF  1
   INSTANCE: INSTANCE_SOIL                                                                   
 LARGEST CORRECTION TO DISP.        3.471E-13   AT NODE          3   DOF  2
   INSTANCE: INSTANCE_SOIL                                                                   
          THE FORCE     EQUILIBRIUM RESPONSE WAS LINEAR IN THIS INCREMENT
          TIME INCREMENT MAY NOW INCREASE TO    2.919E-04

 ITERATION SUMMARY FOR THE INCREMENT:   1 TOTAL ITERATIONS, OF WHICH
   0 ARE SEVERE DISCONTINUITY ITERATIONS AND  1 ARE EQUILIBRIUM ITERATIONS.

 TIME INCREMENT COMPLETED  1.946E-04,  FRACTION OF STEP COMPLETED  4.857E-05
 STEP TIME COMPLETED       5.829E-04,  TOTAL TIME COMPLETED        1.058E-02


  INCREMENT    16 STARTS. ATTEMPT NUMBER  1, TIME INCREMENT  2.919E-04
 
	UNSYMMETRIC PURE THREAD-BASED DIRECT SPARSE SOLVER RUNNING ON
 	1 HOST x 1 MPI RANK PER HOST x 1 THREAD PER RANK
        NUMBER OF EQUATIONS:  24
        NUMBER OF RHS:        1
        NUMBER OF FLOPS:      9.248e+03
        SOLVER ELAPSED TIME:  12ms

               CONVERGENCE CHECKS FOR EQUILIBRIUM ITERATION     1


 AVERAGE FORCE                       12.5       TIME AVG. FORCE        12.5    
 LARGEST SCALED RESIDUAL FORCE      3.905E-11   AT NODE          7   DOF  2
   INSTANCE: INSTANCE_SOIL                                                                   
  CORRESPONDING RESIDUAL FORCE      3.905E-11
 LARGEST INCREMENT OF DISP.        -2.919E-06   AT NODE          1   DOF  1
   INSTANCE: INSTANCE_SOIL                                                                   
 LARGEST CORRECTION TO DISP.        7.809E-13   AT NODE          1   DOF  2
   INSTANCE: INSTANCE_SOIL                                                                   
          THE FORCE     EQUILIBRIUM RESPONSE WAS LINEAR IN THIS INCREMENT
          TIME INCREMENT MAY NOW INCREASE TO    4.379E-04

 ITERATION SUMMARY FOR THE INCREMENT:   1 TOTAL ITERATIONS, OF WHICH
   0 ARE SEVERE DISCONTINUITY ITERATIONS AND  1 ARE EQUILIBRIUM ITERATIONS.

 TIME INCREMENT COMPLETED  2.919E-04,  FRACTION OF STEP COMPLETED  7.290E-05
 STEP TIME COMPLETED       8.748E-04,  TOTAL TIME COMPLETED        1.087E-02


  INCREMENT    17 STARTS. ATTEMPT NUMBER  1, TIME INCREMENT  4.379E-04
 
	UNSYMMETRIC PURE THREAD-BASED DIRECT SPARSE SOLVER RUNNING ON
 	1 HOST x 1 MPI RANK PER HOST x 1 THREAD PER RANK
        NUMBER OF EQUATIONS:  24
        NUMBER OF RHS:        1
        NUMBER OF FLOPS:      9.248e+03
        SOLVER ELAPSED TIME:  7ms

               CONVERGENCE CHECKS FOR EQUILIBRIUM ITERATION     1


 AVERAGE FORCE                       12.5       TIME AVG. FORCE        12.5    
 LARGEST SCALED RESIDUAL FORCE      4.569E-06   AT NODE          6   DOF  3
   INSTANCE: INSTANCE_SOIL                                                                   
  CORRESPONDING RESIDUAL FORCE      4.569E-06
 LARGEST INCREMENT OF DISP.        -4.379E-06   AT NODE          4   DOF  1
   INSTANCE: INSTANCE_SOIL                                                                   
 LARGEST CORRECTION TO DISP.        2.844E-09   AT NODE          5   DOF  2
   INSTANCE: INSTANCE_SOIL                                                                   
          THE FORCE     EQUILIBRIUM EQUATIONS HAVE CONVERGED
          TIME INCREMENT MAY NOW INCREASE TO    6.568E-04

 ITERATION SUMMARY FOR THE INCREMENT:   1 TOTAL ITERATIONS, OF WHICH
   0 ARE SEVERE DISCONTINUITY ITERATIONS AND  1 ARE EQUILIBRIUM ITERATIONS.

 TIME INCREMENT COMPLETED  4.379E-04,  FRACTION OF STEP COMPLETED  1.094E-04
 STEP TIME COMPLETED       1.313E-03,  TOTAL TIME COMPLETED        1.131E-02


  INCREMENT    18 STARTS. ATTEMPT NUMBER  1, TIME INCREMENT  6.568E-04
 
	UNSYMMETRIC PURE THREAD-BASED DIRECT SPARSE SOLVER RUNNING ON
 	1 HOST x 1 MPI RANK PER HOST x 1 THREAD PER RANK
        NUMBER OF EQUATIONS:  24
        NUMBER OF RHS:        1
        NUMBER OF FLOPS:      9.248e+03
        SOLVER ELAPSED TIME:  5ms

               CONVERGENCE CHECKS FOR EQUILIBRIUM ITERATION     1


 AVERAGE FORCE                       12.5       TIME AVG. FORCE        12.5    
 LARGEST SCALED RESIDUAL FORCE      1.184E-03   AT NODE          1   DOF  3
   INSTANCE: INSTANCE_SOIL                                                                   
  CORRESPONDING RESIDUAL FORCE      1.184E-03
 LARGEST INCREMENT OF DISP.        -6.568E-06   AT NODE          4   DOF  1
   INSTANCE: INSTANCE_SOIL                                                                   
 LARGEST CORRECTION TO DISP.        4.962E-08   AT NODE          1   DOF  3
   INSTANCE: INSTANCE_SOIL                                                                   
          THE FORCE     EQUILIBRIUM EQUATIONS HAVE CONVERGED
          TIME INCREMENT MAY NOW INCREASE TO    9.853E-04

 ITERATION SUMMARY FOR THE INCREMENT:   1 TOTAL ITERATIONS, OF WHICH
   0 ARE SEVERE DISCONTINUITY ITERATIONS AND  1 ARE EQUILIBRIUM ITERATIONS.

 TIME INCREMENT COMPLETED  6.568E-04,  FRACTION OF STEP COMPLETED  1.641E-04
 STEP TIME COMPLETED       1.970E-03,  TOTAL TIME COMPLETED        1.197E-02


  INCREMENT    19 STARTS. ATTEMPT NUMBER  1, TIME INCREMENT  9.853E-04
 
	UNSYMMETRIC PURE THREAD-BASED DIRECT SPARSE SOLVER RUNNING ON
 	1 HOST x 1 MPI RANK PER HOST x 1 THREAD PER RANK
        NUMBER OF EQUATIONS:  24
        NUMBER OF RHS:        1
        NUMBER OF FLOPS:      9.248e+03
        SOLVER ELAPSED TIME:  8ms

               CONVERGENCE CHECKS FOR EQUILIBRIUM ITERATION     1


 AVERAGE FORCE                       12.6       TIME AVG. FORCE        12.5    
 LARGEST SCALED RESIDUAL FORCE      2.361E-03   AT NODE          7   DOF  2
   INSTANCE: INSTANCE_SOIL                                                                   
  CORRESPONDING RESIDUAL FORCE      2.361E-03
 LARGEST INCREMENT OF DISP.        -9.853E-06   AT NODE          4   DOF  1
   INSTANCE: INSTANCE_SOIL                                                                   
 LARGEST CORRECTION TO DISP.        9.938E-08   AT NODE          5   DOF  3
   INSTANCE: INSTANCE_SOIL                                                                   
 ESTIMATE OF DISP.    CORRECTION    5.229E-08
          FORCE     EQUILIB. ACCEPTED BASED ON SMALL RESIDUAL AND ESTIMATED CORRECTION
          TIME INCREMENT MAY NOW INCREASE TO    1.478E-03

 ITERATION SUMMARY FOR THE INCREMENT:   1 TOTAL ITERATIONS, OF WHICH
   0 ARE SEVERE DISCONTINUITY ITERATIONS AND  1 ARE EQUILIBRIUM ITERATIONS.

 TIME INCREMENT COMPLETED  9.853E-04,  FRACTION OF STEP COMPLETED  2.462E-04
 STEP TIME COMPLETED       2.955E-03,  TOTAL TIME COMPLETED        1.295E-02


  INCREMENT    20 STARTS. ATTEMPT NUMBER  1, TIME INCREMENT  1.478E-03
 
	UNSYMMETRIC PURE THREAD-BASED DIRECT SPARSE SOLVER RUNNING ON
 	1 HOST x 1 MPI RANK PER HOST x 1 THREAD PER RANK
        NUMBER OF EQUATIONS:  24
        NUMBER OF RHS:        1
        NUMBER OF FLOPS:      9.248e+03
        SOLVER ELAPSED TIME:  1ms

               CONVERGENCE CHECKS FOR EQUILIBRIUM ITERATION     1


 AVERAGE FORCE                       12.6       TIME AVG. FORCE        12.5    
 LARGEST SCALED RESIDUAL FORCE      3.865E-03   AT NODE          1   DOF  2
   INSTANCE: INSTANCE_SOIL                                                                   
  CORRESPONDING RESIDUAL FORCE      3.865E-03
 LARGEST INCREMENT OF DISP.        -1.478E-05   AT NODE          1   DOF  1
   INSTANCE: INSTANCE_SOIL                                                                   
 LARGEST CORRECTION TO DISP.        1.623E-07   AT NODE          7   DOF  2
   INSTANCE: INSTANCE_SOIL                                                                   
 ESTIMATE OF DISP.    CORRECTION    8.587E-08
          FORCE     EQUILIB. ACCEPTED BASED ON SMALL RESIDUAL AND ESTIMATED CORRECTION
          TIME INCREMENT MAY NOW INCREASE TO    2.217E-03

 ITERATION SUMMARY FOR THE INCREMENT:   1 TOTAL ITERATIONS, OF WHICH
   0 ARE SEVERE DISCONTINUITY ITERATIONS AND  1 ARE EQUILIBRIUM ITERATIONS.

 TIME INCREMENT COMPLETED  1.478E-03,  FRACTION OF STEP COMPLETED  3.694E-04
 STEP TIME COMPLETED       4.433E-03,  TOTAL TIME COMPLETED        1.443E-02


  INCREMENT    21 STARTS. ATTEMPT NUMBER  1, TIME INCREMENT  2.217E-03
 
	UNSYMMETRIC PURE THREAD-BASED DIRECT SPARSE SOLVER RUNNING ON
 	1 HOST x 1 MPI RANK PER HOST x 1 THREAD PER RANK
        NUMBER OF EQUATIONS:  24
        NUMBER OF RHS:        1
        NUMBER OF FLOPS:      9.248e+03
        SOLVER ELAPSED TIME:  0ms

               CONVERGENCE CHECKS FOR EQUILIBRIUM ITERATION     1


 AVERAGE FORCE                       12.6       TIME AVG. FORCE        12.5    
 LARGEST SCALED RESIDUAL FORCE      6.605E-03   AT NODE          1   DOF  2
   INSTANCE: INSTANCE_SOIL                                                                   
  CORRESPONDING RESIDUAL FORCE      6.605E-03
 LARGEST INCREMENT OF DISP.        -2.217E-05   AT NODE          1   DOF  1
   INSTANCE: INSTANCE_SOIL                                                                   
 LARGEST CORRECTION TO DISP.        2.799E-07   AT NODE          3   DOF  2
   INSTANCE: INSTANCE_SOIL                                                                   
 ESTIMATE OF DISP.    CORRECTION    1.483E-07
          FORCE     EQUILIB. ACCEPTED BASED ON SMALL RESIDUAL AND ESTIMATED CORRECTION
          TIME INCREMENT MAY NOW INCREASE TO    3.325E-03

 ITERATION SUMMARY FOR THE INCREMENT:   1 TOTAL ITERATIONS, OF WHICH
   0 ARE SEVERE DISCONTINUITY ITERATIONS AND  1 ARE EQUILIBRIUM ITERATIONS.

 TIME INCREMENT COMPLETED  2.217E-03,  FRACTION OF STEP COMPLETED  5.541E-04
 STEP TIME COMPLETED       6.650E-03,  TOTAL TIME COMPLETED        1.665E-02


  INCREMENT    22 STARTS. ATTEMPT NUMBER  1, TIME INCREMENT  3.325E-03
 
	UNSYMMETRIC PURE THREAD-BASED DIRECT SPARSE SOLVER RUNNING ON
 	1 HOST x 1 MPI RANK PER HOST x 1 THREAD PER RANK
        NUMBER OF EQUATIONS:  24
        NUMBER OF RHS:        1
        NUMBER OF FLOPS:      9.248e+03
        SOLVER ELAPSED TIME:  2ms

               CONVERGENCE CHECKS FOR EQUILIBRIUM ITERATION     1


 AVERAGE FORCE                       12.7       TIME AVG. FORCE        12.5    
 LARGEST SCALED RESIDUAL FORCE      1.210E-02   AT NODE          1   DOF  2
   INSTANCE: INSTANCE_SOIL                                                                   
  CORRESPONDING RESIDUAL FORCE      1.210E-02
 LARGEST INCREMENT OF DISP.        -3.325E-05   AT NODE          3   DOF  1
   INSTANCE: INSTANCE_SOIL                                                                   
 LARGEST CORRECTION TO DISP.        5.194E-07   AT NODE          3   DOF  2
   INSTANCE: INSTANCE_SOIL                                                                   
 ESTIMATE OF DISP.    CORRECTION    2.757E-07
          FORCE     EQUILIB. ACCEPTED BASED ON SMALL RESIDUAL AND ESTIMATED CORRECTION
          TIME INCREMENT MAY NOW INCREASE TO    4.988E-03

 ITERATION SUMMARY FOR THE INCREMENT:   1 TOTAL ITERATIONS, OF WHICH
   0 ARE SEVERE DISCONTINUITY ITERATIONS AND  1 ARE EQUILIBRIUM ITERATIONS.

 TIME INCREMENT COMPLETED  3.325E-03,  FRACTION OF STEP COMPLETED  8.312E-04
 STEP TIME COMPLETED       9.975E-03,  TOTAL TIME COMPLETED        1.997E-02


  INCREMENT    23 STARTS. ATTEMPT NUMBER  1, TIME INCREMENT  4.988E-03
 too many attempt made for the increment of stress
 total time=  0.930329805838574      current increment time=
  4.722451895854525E-003 sstol=  1.000000000000000E-006 rtol=
  3.515340545581275E-007
 too many attempt made for the increment of stress
 total time=  0.930329805834916      current increment time=
  4.722451895835911E-003 sstol=  1.000000000000000E-006 rtol=
  3.515340545558627E-007
 too many attempt made for the increment of stress
 total time=  0.930329805834956      current increment time=
  4.722451895836102E-003 sstol=  1.000000000000000E-006 rtol=
  3.515340545558585E-007
 too many attempt made for the increment of stress
 total time=  0.930329805836496      current increment time=
  4.722451895843978E-003 sstol=  1.000000000000000E-006 rtol=
  3.515340545574535E-007
 too many attempt made for the increment of stress
 total time=  0.930329805832193      current increment time=
  4.722451895822008E-003 sstol=  1.000000000000000E-006 rtol=
  3.515340545543844E-007
 too many attempt made for the increment of stress
 total time=  0.930329805838484      current increment time=
  4.722451895854065E-003 sstol=  1.000000000000000E-006 rtol=
  3.515340545575559E-007
 too many attempt made for the increment of stress
 total time=  0.930329805835846      current increment time=
  4.722451895840640E-003 sstol=  1.000000000000000E-006 rtol=
  3.515340545560660E-007
 too many attempt made for the increment of stress
 total time=  0.930329805837901      current increment time=
  4.722451895851115E-003 sstol=  1.000000000000000E-006 rtol=
  3.515340545567377E-007
 
	UNSYMMETRIC PURE THREAD-BASED DIRECT SPARSE SOLVER RUNNING ON
 	1 HOST x 1 MPI RANK PER HOST x 1 THREAD PER RANK
        NUMBER OF EQUATIONS:  24
        NUMBER OF RHS:        1
        NUMBER OF FLOPS:      9.248e+03
        SOLVER ELAPSED TIME:  8ms
 too many attempt made for the increment of stress
 total time=  0.917603641157540      current increment time=
  4.657851580498058E-003 sstol=  1.000000000000000E-006 rtol=
  3.510556318579491E-007
 too many attempt made for the increment of stress
 total time=  0.917603641151169      current increment time=
  4.657851580465558E-003 sstol=  1.000000000000000E-006 rtol=
  3.510556318545108E-007
 too many attempt made for the increment of stress
 total time=  0.917603641148364      current increment time=
  4.657851580451264E-003 sstol=  1.000000000000000E-006 rtol=
  3.510556318496917E-007
 too many attempt made for the increment of stress
 total time=  0.917603641155181      current increment time=
  4.657851580486053E-003 sstol=  1.000000000000000E-006 rtol=
  3.510556318568697E-007
 too many attempt made for the increment of stress
 total time=  0.917603641153286      current increment time=
  4.657851580476380E-003 sstol=  1.000000000000000E-006 rtol=
  3.510556318542950E-007
 too many attempt made for the increment of stress
 total time=  0.917603641159227      current increment time=
  4.657851580506653E-003 sstol=  1.000000000000000E-006 rtol=
  3.510556318588048E-007
 too many attempt made for the increment of stress
 total time=  0.917603641154837      current increment time=
  4.657851580484299E-003 sstol=  1.000000000000000E-006 rtol=
  3.510556318551583E-007
 too many attempt made for the increment of stress
 total time=  0.917603641156839      current increment time=
  4.657851580494486E-003 sstol=  1.000000000000000E-006 rtol=
  3.510556318570032E-007
 

 ***NOTE: USER SUBROUTINE REQUESTS A TIME INCREMENT CHANGE.


  INCREMENT    23 STARTS. ATTEMPT NUMBER  2, TIME INCREMENT  2.494E-03
 
	UNSYMMETRIC PURE THREAD-BASED DIRECT SPARSE SOLVER RUNNING ON
 	1 HOST x 1 MPI RANK PER HOST x 1 THREAD PER RANK
        NUMBER OF EQUATIONS:  24
        NUMBER OF RHS:        1
        NUMBER OF FLOPS:      9.248e+03
        SOLVER ELAPSED TIME:  3ms

               CONVERGENCE CHECKS FOR EQUILIBRIUM ITERATION     1


 AVERAGE FORCE                       12.7       TIME AVG. FORCE        12.5    
 LARGEST SCALED RESIDUAL FORCE      1.279E-02   AT NODE          1   DOF  2
   INSTANCE: INSTANCE_SOIL                                                                   
  CORRESPONDING RESIDUAL FORCE      1.279E-02
 LARGEST INCREMENT OF DISP.        -2.494E-05   AT NODE          3   DOF  1
   INSTANCE: INSTANCE_SOIL                                                                   
 LARGEST CORRECTION TO DISP.        5.628E-07   AT NODE          5   DOF  2
   INSTANCE: INSTANCE_SOIL                                                                   
          DISP.    CORRECTION TOO LARGE COMPARED TO DISP.    INCREMENT
 
	UNSYMMETRIC PURE THREAD-BASED DIRECT SPARSE SOLVER RUNNING ON
 	1 HOST x 1 MPI RANK PER HOST x 1 THREAD PER RANK
        NUMBER OF EQUATIONS:  24
        NUMBER OF RHS:        1
        NUMBER OF FLOPS:      9.248e+03
        SOLVER ELAPSED TIME:  5ms

               CONVERGENCE CHECKS FOR EQUILIBRIUM ITERATION     2


 AVERAGE FORCE                       12.7       TIME AVG. FORCE        12.5    
 LARGEST SCALED RESIDUAL FORCE      6.745E-03   AT NODE          1   DOF  2
   INSTANCE: INSTANCE_SOIL                                                                   
  CORRESPONDING RESIDUAL FORCE      6.745E-03
 LARGEST INCREMENT OF DISP.        -2.494E-05   AT NODE          3   DOF  1
   INSTANCE: INSTANCE_SOIL                                                                   
 LARGEST CORRECTION TO DISP.        2.967E-07   AT NODE          7   DOF  2
   INSTANCE: INSTANCE_SOIL                                                                   
 ESTIMATE OF DISP.    CORRECTION    1.564E-07
          FORCE     EQUILIB. ACCEPTED BASED ON SMALL RESIDUAL AND ESTIMATED CORRECTION
          TIME INCREMENT MAY NOW INCREASE TO    3.741E-03

 ITERATION SUMMARY FOR THE INCREMENT:   2 TOTAL ITERATIONS, OF WHICH
   0 ARE SEVERE DISCONTINUITY ITERATIONS AND  2 ARE EQUILIBRIUM ITERATIONS.

 TIME INCREMENT COMPLETED  2.494E-03,  FRACTION OF STEP COMPLETED  1.039E-03
 STEP TIME COMPLETED       1.247E-02,  TOTAL TIME COMPLETED        2.247E-02


  INCREMENT    24 STARTS. ATTEMPT NUMBER  1, TIME INCREMENT  3.741E-03
 
	UNSYMMETRIC PURE THREAD-BASED DIRECT SPARSE SOLVER RUNNING ON
 	1 HOST x 1 MPI RANK PER HOST x 1 THREAD PER RANK
        NUMBER OF EQUATIONS:  24
        NUMBER OF RHS:        1
        NUMBER OF FLOPS:      9.248e+03
        SOLVER ELAPSED TIME:  6ms

               CONVERGENCE CHECKS FOR EQUILIBRIUM ITERATION     1


 AVERAGE FORCE                       12.8       TIME AVG. FORCE        12.5    
 LARGEST SCALED RESIDUAL FORCE      5.221E-03   AT NODE          2   DOF  3
   INSTANCE: INSTANCE_SOIL                                                                   
  CORRESPONDING RESIDUAL FORCE      5.221E-03
 LARGEST INCREMENT OF DISP.        -3.741E-05   AT NODE          1   DOF  1
   INSTANCE: INSTANCE_SOIL                                                                   
 LARGEST CORRECTION TO DISP.        2.301E-07   AT NODE          1   DOF  3
   INSTANCE: INSTANCE_SOIL                                                                   
          THE FORCE     EQUILIBRIUM EQUATIONS HAVE CONVERGED
          TIME INCREMENT MAY NOW INCREASE TO    5.611E-03

 ITERATION SUMMARY FOR THE INCREMENT:   1 TOTAL ITERATIONS, OF WHICH
   0 ARE SEVERE DISCONTINUITY ITERATIONS AND  1 ARE EQUILIBRIUM ITERATIONS.

 TIME INCREMENT COMPLETED  3.741E-03,  FRACTION OF STEP COMPLETED  1.351E-03
 STEP TIME COMPLETED       1.621E-02,  TOTAL TIME COMPLETED        2.621E-02


  INCREMENT    25 STARTS. ATTEMPT NUMBER  1, TIME INCREMENT  5.611E-03
 
	UNSYMMETRIC PURE THREAD-BASED DIRECT SPARSE SOLVER RUNNING ON
 	1 HOST x 1 MPI RANK PER HOST x 1 THREAD PER RANK
        NUMBER OF EQUATIONS:  24
        NUMBER OF RHS:        1
        NUMBER OF FLOPS:      9.248e+03
        SOLVER ELAPSED TIME:  0ms

               CONVERGENCE CHECKS FOR EQUILIBRIUM ITERATION     1


 AVERAGE FORCE                       12.9       TIME AVG. FORCE        12.6    
 LARGEST SCALED RESIDUAL FORCE      1.234E-02   AT NODE          2   DOF  3
   INSTANCE: INSTANCE_SOIL                                                                   
  CORRESPONDING RESIDUAL FORCE      1.234E-02
 LARGEST INCREMENT OF DISP.        -5.611E-05   AT NODE          1   DOF  1
   INSTANCE: INSTANCE_SOIL                                                                   
 LARGEST CORRECTION TO DISP.        5.514E-07   AT NODE          2   DOF  3
   INSTANCE: INSTANCE_SOIL                                                                   
          THE FORCE     EQUILIBRIUM EQUATIONS HAVE CONVERGED
          TIME INCREMENT MAY NOW INCREASE TO    8.417E-03

 ITERATION SUMMARY FOR THE INCREMENT:   1 TOTAL ITERATIONS, OF WHICH
   0 ARE SEVERE DISCONTINUITY ITERATIONS AND  1 ARE EQUILIBRIUM ITERATIONS.

 TIME INCREMENT COMPLETED  5.611E-03,  FRACTION OF STEP COMPLETED  1.818E-03
 STEP TIME COMPLETED       2.182E-02,  TOTAL TIME COMPLETED        3.182E-02


  INCREMENT    26 STARTS. ATTEMPT NUMBER  1, TIME INCREMENT  8.417E-03
 
	UNSYMMETRIC PURE THREAD-BASED DIRECT SPARSE SOLVER RUNNING ON
 	1 HOST x 1 MPI RANK PER HOST x 1 THREAD PER RANK
        NUMBER OF EQUATIONS:  24
        NUMBER OF RHS:        1
        NUMBER OF FLOPS:      9.248e+03
        SOLVER ELAPSED TIME:  13ms

               CONVERGENCE CHECKS FOR EQUILIBRIUM ITERATION     1


 AVERAGE FORCE                       13.0       TIME AVG. FORCE        12.6    
 LARGEST SCALED RESIDUAL FORCE      3.086E-02   AT NODE          1   DOF  2
   INSTANCE: INSTANCE_SOIL                                                                   
  CORRESPONDING RESIDUAL FORCE      3.086E-02
 LARGEST INCREMENT OF DISP.        -8.417E-05   AT NODE          1   DOF  1
   INSTANCE: INSTANCE_SOIL                                                                   
 LARGEST CORRECTION TO DISP.        1.404E-06   AT NODE          2   DOF  3
   INSTANCE: INSTANCE_SOIL                                                                   
 ESTIMATE OF DISP.    CORRECTION    7.459E-07
          FORCE     EQUILIB. ACCEPTED BASED ON SMALL RESIDUAL AND ESTIMATED CORRECTION
          TIME INCREMENT MAY NOW INCREASE TO    1.263E-02

 ITERATION SUMMARY FOR THE INCREMENT:   1 TOTAL ITERATIONS, OF WHICH
   0 ARE SEVERE DISCONTINUITY ITERATIONS AND  1 ARE EQUILIBRIUM ITERATIONS.

 TIME INCREMENT COMPLETED  8.417E-03,  FRACTION OF STEP COMPLETED  2.520E-03
 STEP TIME COMPLETED       3.024E-02,  TOTAL TIME COMPLETED        4.024E-02


  INCREMENT    27 STARTS. ATTEMPT NUMBER  1, TIME INCREMENT  1.263E-02
 too many attempt made for the increment of stress
 total time=  0.906827902187034      current increment time=
  4.603157748779163E-003 sstol=  1.000000000000000E-006 rtol=
  3.526993168777609E-007
 too many attempt made for the increment of stress
 total time=  0.906827902187181      current increment time=
  4.603157748779909E-003 sstol=  1.000000000000000E-006 rtol=
  3.526993168773636E-007
 too many attempt made for the increment of stress
 total time=  0.906827902187649      current increment time=
  4.603157748782323E-003 sstol=  1.000000000000000E-006 rtol=
  3.526993168779047E-007
 too many attempt made for the increment of stress
 total time=  0.906827902187230      current increment time=
  4.603157748780178E-003 sstol=  1.000000000000000E-006 rtol=
  3.526993168775495E-007
 too many attempt made for the increment of stress
 total time=  0.906827902187182      current increment time=
  4.603157748779896E-003 sstol=  1.000000000000000E-006 rtol=
  3.526993168767270E-007
 too many attempt made for the increment of stress
 total time=  0.906827902187710      current increment time=
  4.603157748782599E-003 sstol=  1.000000000000000E-006 rtol=
  3.526993168775200E-007
 too many attempt made for the increment of stress
 total time=  0.906827902187018      current increment time=
  4.603157748779095E-003 sstol=  1.000000000000000E-006 rtol=
  3.526993168771879E-007
 too many attempt made for the increment of stress
 total time=  0.906827902187030      current increment time=
  4.603157748779134E-003 sstol=  1.000000000000000E-006 rtol=
  3.526993168769321E-007
 
	UNSYMMETRIC PURE THREAD-BASED DIRECT SPARSE SOLVER RUNNING ON
 	1 HOST x 1 MPI RANK PER HOST x 1 THREAD PER RANK
        NUMBER OF EQUATIONS:  24
        NUMBER OF RHS:        1
        NUMBER OF FLOPS:      9.248e+03
        SOLVER ELAPSED TIME:  3ms
 too many attempt made for the increment of stress
 total time=  0.893356851365630      current increment time=
  4.534776385086333E-003 sstol=  1.000000000000000E-006 rtol=
  3.520786880723855E-007
 too many attempt made for the increment of stress
 total time=  0.893356851365374      current increment time=
  4.534776385085047E-003 sstol=  1.000000000000000E-006 rtol=
  3.520786880728486E-007
 too many attempt made for the increment of stress
 total time=  0.893356851365595      current increment time=
  4.534776385086183E-003 sstol=  1.000000000000000E-006 rtol=
  3.520786880732161E-007
 too many attempt made for the increment of stress
 total time=  0.893356851364699      current increment time=
  4.534776385081615E-003 sstol=  1.000000000000000E-006 rtol=
  3.520786880716855E-007
 too many attempt made for the increment of stress
 total time=  0.893356851365279      current increment time=
  4.534776385084547E-003 sstol=  1.000000000000000E-006 rtol=
  3.520786880728586E-007
 too many attempt made for the increment of stress
 total time=  0.893356851366047      current increment time=
  4.534776385088456E-003 sstol=  1.000000000000000E-006 rtol=
  3.520786880724827E-007
 too many attempt made for the increment of stress
 total time=  0.893356851364606      current increment time=
  4.534776385081096E-003 sstol=  1.000000000000000E-006 rtol=
  3.520786880718263E-007
 too many attempt made for the increment of stress
 total time=  0.893356851365112      current increment time=
  4.534776385083707E-003 sstol=  1.000000000000000E-006 rtol=
  3.520786880724902E-007
 

 ***NOTE: USER SUBROUTINE REQUESTS A TIME INCREMENT CHANGE.


  INCREMENT    27 STARTS. ATTEMPT NUMBER  2, TIME INCREMENT  6.313E-03
 
	UNSYMMETRIC PURE THREAD-BASED DIRECT SPARSE SOLVER RUNNING ON
 	1 HOST x 1 MPI RANK PER HOST x 1 THREAD PER RANK
        NUMBER OF EQUATIONS:  24
        NUMBER OF RHS:        1
        NUMBER OF FLOPS:      9.248e+03
        SOLVER ELAPSED TIME:  4ms

               CONVERGENCE CHECKS FOR EQUILIBRIUM ITERATION     1


 AVERAGE FORCE                       13.1       TIME AVG. FORCE        12.6    
 LARGEST SCALED RESIDUAL FORCE      3.495E-02   AT NODE          1   DOF  2
   INSTANCE: INSTANCE_SOIL                                                                   
  CORRESPONDING RESIDUAL FORCE      3.495E-02
 LARGEST INCREMENT OF DISP.        -6.313E-05   AT NODE          1   DOF  1
   INSTANCE: INSTANCE_SOIL                                                                   
 LARGEST CORRECTION TO DISP.        1.636E-06   AT NODE          2   DOF  3
   INSTANCE: INSTANCE_SOIL                                                                   
          DISP.    CORRECTION TOO LARGE COMPARED TO DISP.    INCREMENT
 
	UNSYMMETRIC PURE THREAD-BASED DIRECT SPARSE SOLVER RUNNING ON
 	1 HOST x 1 MPI RANK PER HOST x 1 THREAD PER RANK
        NUMBER OF EQUATIONS:  24
        NUMBER OF RHS:        1
        NUMBER OF FLOPS:      9.248e+03
        SOLVER ELAPSED TIME:  3ms

               CONVERGENCE CHECKS FOR EQUILIBRIUM ITERATION     2


 AVERAGE FORCE                       13.1       TIME AVG. FORCE        12.6    
 LARGEST SCALED RESIDUAL FORCE      1.844E-02   AT NODE          2   DOF  3
   INSTANCE: INSTANCE_SOIL                                                                   
  CORRESPONDING RESIDUAL FORCE      1.844E-02
 LARGEST INCREMENT OF DISP.        -6.313E-05   AT NODE          1   DOF  1
   INSTANCE: INSTANCE_SOIL                                                                   
 LARGEST CORRECTION TO DISP.        8.632E-07   AT NODE          1   DOF  2
   INSTANCE: INSTANCE_SOIL                                                                   
 ESTIMATE OF DISP.    CORRECTION    4.554E-07
          FORCE     EQUILIB. ACCEPTED BASED ON SMALL RESIDUAL AND ESTIMATED CORRECTION
          TIME INCREMENT MAY NOW INCREASE TO    9.469E-03

 ITERATION SUMMARY FOR THE INCREMENT:   2 TOTAL ITERATIONS, OF WHICH
   0 ARE SEVERE DISCONTINUITY ITERATIONS AND  2 ARE EQUILIBRIUM ITERATIONS.

 TIME INCREMENT COMPLETED  6.313E-03,  FRACTION OF STEP COMPLETED  3.046E-03
 STEP TIME COMPLETED       3.655E-02,  TOTAL TIME COMPLETED        4.655E-02


  INCREMENT    28 STARTS. ATTEMPT NUMBER  1, TIME INCREMENT  9.469E-03
 
	UNSYMMETRIC PURE THREAD-BASED DIRECT SPARSE SOLVER RUNNING ON
 	1 HOST x 1 MPI RANK PER HOST x 1 THREAD PER RANK
        NUMBER OF EQUATIONS:  24
        NUMBER OF RHS:        1
        NUMBER OF FLOPS:      9.248e+03
        SOLVER ELAPSED TIME:  15ms

               CONVERGENCE CHECKS FOR EQUILIBRIUM ITERATION     1


 AVERAGE FORCE                       13.2       TIME AVG. FORCE        12.6    
 LARGEST SCALED RESIDUAL FORCE      1.477E-02   AT NODE          5   DOF  2
   INSTANCE: INSTANCE_SOIL                                                                   
  CORRESPONDING RESIDUAL FORCE      1.477E-02
 LARGEST INCREMENT OF DISP.        -9.469E-05   AT NODE          1   DOF  1
   INSTANCE: INSTANCE_SOIL                                                                   
 LARGEST CORRECTION TO DISP.        6.951E-07   AT NODE          6   DOF  3
   INSTANCE: INSTANCE_SOIL                                                                   
          THE FORCE     EQUILIBRIUM EQUATIONS HAVE CONVERGED
          TIME INCREMENT MAY NOW INCREASE TO    1.398E-02

 ITERATION SUMMARY FOR THE INCREMENT:   1 TOTAL ITERATIONS, OF WHICH
   0 ARE SEVERE DISCONTINUITY ITERATIONS AND  1 ARE EQUILIBRIUM ITERATIONS.

 TIME INCREMENT COMPLETED  9.469E-03,  FRACTION OF STEP COMPLETED  3.835E-03
 STEP TIME COMPLETED       4.602E-02,  TOTAL TIME COMPLETED        5.602E-02


  INCREMENT    29 STARTS. ATTEMPT NUMBER  1, TIME INCREMENT  1.398E-02
 
	UNSYMMETRIC PURE THREAD-BASED DIRECT SPARSE SOLVER RUNNING ON
 	1 HOST x 1 MPI RANK PER HOST x 1 THREAD PER RANK
        NUMBER OF EQUATIONS:  24
        NUMBER OF RHS:        1
        NUMBER OF FLOPS:      9.248e+03
        SOLVER ELAPSED TIME:  0ms

               CONVERGENCE CHECKS FOR EQUILIBRIUM ITERATION     1


 AVERAGE FORCE                       13.3       TIME AVG. FORCE        12.6    
 LARGEST SCALED RESIDUAL FORCE      2.993E-02   AT NODE          6   DOF  3
   INSTANCE: INSTANCE_SOIL                                                                   
  CORRESPONDING RESIDUAL FORCE      2.993E-02
 LARGEST INCREMENT OF DISP.        -1.398E-04   AT NODE          2   DOF  1
   INSTANCE: INSTANCE_SOIL                                                                   
 LARGEST CORRECTION TO DISP.        1.433E-06   AT NODE          5   DOF  3
   INSTANCE: INSTANCE_SOIL                                                                   
 ESTIMATE OF DISP.    CORRECTION    7.606E-07
          FORCE     EQUILIB. ACCEPTED BASED ON SMALL RESIDUAL AND ESTIMATED CORRECTION
          TIME INCREMENT MAY NOW INCREASE TO    2.097E-02

 ITERATION SUMMARY FOR THE INCREMENT:   1 TOTAL ITERATIONS, OF WHICH
   0 ARE SEVERE DISCONTINUITY ITERATIONS AND  1 ARE EQUILIBRIUM ITERATIONS.

 TIME INCREMENT COMPLETED  1.398E-02,  FRACTION OF STEP COMPLETED  5.000E-03
 STEP TIME COMPLETED       6.000E-02,  TOTAL TIME COMPLETED        7.000E-02


  INCREMENT    30 STARTS. ATTEMPT NUMBER  1, TIME INCREMENT  2.097E-02
 
	UNSYMMETRIC PURE THREAD-BASED DIRECT SPARSE SOLVER RUNNING ON
 	1 HOST x 1 MPI RANK PER HOST x 1 THREAD PER RANK
        NUMBER OF EQUATIONS:  24
        NUMBER OF RHS:        1
        NUMBER OF FLOPS:      9.248e+03
        SOLVER ELAPSED TIME:  7ms

               CONVERGENCE CHECKS FOR EQUILIBRIUM ITERATION     1


 AVERAGE FORCE                       13.6       TIME AVG. FORCE        12.7    
 LARGEST SCALED RESIDUAL FORCE      6.844E-02   AT NODE          2   DOF  3
   INSTANCE: INSTANCE_SOIL                                                                   
  CORRESPONDING RESIDUAL FORCE      6.844E-02
 LARGEST INCREMENT OF DISP.        -2.097E-04   AT NODE          1   DOF  1
   INSTANCE: INSTANCE_SOIL                                                                   
 LARGEST CORRECTION TO DISP.        3.345E-06   AT NODE          5   DOF  2
   INSTANCE: INSTANCE_SOIL                                                                   
          FORCE     EQUILIBRIUM NOT ACHIEVED WITHIN TOLERANCE.
 
	UNSYMMETRIC PURE THREAD-BASED DIRECT SPARSE SOLVER RUNNING ON
 	1 HOST x 1 MPI RANK PER HOST x 1 THREAD PER RANK
        NUMBER OF EQUATIONS:  24
        NUMBER OF RHS:        1
        NUMBER OF FLOPS:      9.248e+03
        SOLVER ELAPSED TIME:  7ms

               CONVERGENCE CHECKS FOR EQUILIBRIUM ITERATION     2


 AVERAGE FORCE                       13.6       TIME AVG. FORCE        12.7    
 LARGEST SCALED RESIDUAL FORCE      3.636E-02   AT NODE          1   DOF  2
   INSTANCE: INSTANCE_SOIL                                                                   
  CORRESPONDING RESIDUAL FORCE      3.636E-02
 LARGEST INCREMENT OF DISP.        -2.097E-04   AT NODE          1   DOF  1
   INSTANCE: INSTANCE_SOIL                                                                   
 LARGEST CORRECTION TO DISP.        1.778E-06   AT NODE          2   DOF  3
   INSTANCE: INSTANCE_SOIL                                                                   
          THE FORCE     EQUILIBRIUM EQUATIONS HAVE CONVERGED
          TIME INCREMENT MAY NOW INCREASE TO    3.903E-02

 ITERATION SUMMARY FOR THE INCREMENT:   2 TOTAL ITERATIONS, OF WHICH
   0 ARE SEVERE DISCONTINUITY ITERATIONS AND  2 ARE EQUILIBRIUM ITERATIONS.

 TIME INCREMENT COMPLETED  2.097E-02,  FRACTION OF STEP COMPLETED  6.747E-03
 STEP TIME COMPLETED       8.097E-02,  TOTAL TIME COMPLETED        9.097E-02


  INCREMENT    31 STARTS. ATTEMPT NUMBER  1, TIME INCREMENT  3.903E-02
 too many attempt made for the increment of stress
 total time=  0.730934430858431      current increment time=
  3.710295380099381E-003 sstol=  1.000000000000000E-006 rtol=
  3.504456785317110E-007
 too many attempt made for the increment of stress
 total time=  0.730934430857959      current increment time=
  3.710295380096972E-003 sstol=  1.000000000000000E-006 rtol=
  3.504456785320115E-007
 too many attempt made for the increment of stress
 total time=  0.730934430858118      current increment time=
  3.710295380097762E-003 sstol=  1.000000000000000E-006 rtol=
  3.504456785314645E-007
 too many attempt made for the increment of stress
 total time=  0.730934430858447      current increment time=
  3.710295380099447E-003 sstol=  1.000000000000000E-006 rtol=
  3.504456785319073E-007
 too many attempt made for the increment of stress
 total time=  0.730934430858393      current increment time=
  3.710295380099180E-003 sstol=  1.000000000000000E-006 rtol=
  3.504456785322498E-007
 too many attempt made for the increment of stress
 total time=  0.730934430858381      current increment time=
  3.710295380099114E-003 sstol=  1.000000000000000E-006 rtol=
  3.504456785317825E-007
 too many attempt made for the increment of stress
 total time=  0.730934430858344      current increment time=
  3.710295380098929E-003 sstol=  1.000000000000000E-006 rtol=
  3.504456785322555E-007
 too many attempt made for the increment of stress
 total time=  0.730934430858133      current increment time=
  3.710295380097860E-003 sstol=  1.000000000000000E-006 rtol=
  3.504456785314653E-007
 
	UNSYMMETRIC PURE THREAD-BASED DIRECT SPARSE SOLVER RUNNING ON
 	1 HOST x 1 MPI RANK PER HOST x 1 THREAD PER RANK
        NUMBER OF EQUATIONS:  24
        NUMBER OF RHS:        1
        NUMBER OF FLOPS:      9.248e+03
        SOLVER ELAPSED TIME:  8ms
 too many attempt made for the increment of stress
 total time=  0.725653918767759      current increment time=
  3.683490688331953E-003 sstol=  1.000000000000000E-006 rtol=
  3.500557634192800E-007
 too many attempt made for the increment of stress
 total time=  0.725653918767586      current increment time=
  3.683490688331094E-003 sstol=  1.000000000000000E-006 rtol=
  3.500557634192905E-007
 too many attempt made for the increment of stress
 total time=  0.725653918767627      current increment time=
  3.683490688331270E-003 sstol=  1.000000000000000E-006 rtol=
  3.500557634192895E-007
 too many attempt made for the increment of stress
 total time=  0.725653918767933      current increment time=
  3.683490688332855E-003 sstol=  1.000000000000000E-006 rtol=
  3.500557634195317E-007
 too many attempt made for the increment of stress
 total time=  0.725653918767743      current increment time=
  3.683490688331876E-003 sstol=  1.000000000000000E-006 rtol=
  3.500557634189446E-007
 too many attempt made for the increment of stress
 total time=  0.725653918767760      current increment time=
  3.683490688331965E-003 sstol=  1.000000000000000E-006 rtol=
  3.500557634191460E-007
 too many attempt made for the increment of stress
 total time=  0.725653918767666      current increment time=
  3.683490688331478E-003 sstol=  1.000000000000000E-006 rtol=
  3.500557634193547E-007
 too many attempt made for the increment of stress
 total time=  0.725653918767592      current increment time=
  3.683490688331113E-003 sstol=  1.000000000000000E-006 rtol=
  3.500557634191603E-007
 

 ***NOTE: USER SUBROUTINE REQUESTS A TIME INCREMENT CHANGE.


  INCREMENT    31 STARTS. ATTEMPT NUMBER  2, TIME INCREMENT  1.952E-02
 
	UNSYMMETRIC PURE THREAD-BASED DIRECT SPARSE SOLVER RUNNING ON
 	1 HOST x 1 MPI RANK PER HOST x 1 THREAD PER RANK
        NUMBER OF EQUATIONS:  24
        NUMBER OF RHS:        1
        NUMBER OF FLOPS:      9.248e+03
        SOLVER ELAPSED TIME:  14ms

               CONVERGENCE CHECKS FOR EQUILIBRIUM ITERATION     1


 AVERAGE FORCE                       13.7       TIME AVG. FORCE        12.7    
 LARGEST SCALED RESIDUAL FORCE      5.487E-02   AT NODE          7   DOF  2
   INSTANCE: INSTANCE_SOIL                                                                   
  CORRESPONDING RESIDUAL FORCE      5.487E-02
 LARGEST INCREMENT OF DISP.        -1.952E-04   AT NODE          1   DOF  1
   INSTANCE: INSTANCE_SOIL                                                                   
 LARGEST CORRECTION TO DISP.        2.746E-06   AT NODE          1   DOF  2
   INSTANCE: INSTANCE_SOIL                                                                   
 ESTIMATE OF DISP.    CORRECTION    1.455E-06
          FORCE     EQUILIB. ACCEPTED BASED ON SMALL RESIDUAL AND ESTIMATED CORRECTION
          TIME INCREMENT MAY NOW INCREASE TO    2.927E-02
          TIME INCREMENT REDUCED TO   1.952E-02 TO MEET NEXT OUTPUT TIME POINT

 ITERATION SUMMARY FOR THE INCREMENT:   1 TOTAL ITERATIONS, OF WHICH
   0 ARE SEVERE DISCONTINUITY ITERATIONS AND  1 ARE EQUILIBRIUM ITERATIONS.

 TIME INCREMENT COMPLETED  1.952E-02,  FRACTION OF STEP COMPLETED  8.374E-03
 STEP TIME COMPLETED       0.100    ,  TOTAL TIME COMPLETED        0.110    


  INCREMENT    32 STARTS. ATTEMPT NUMBER  1, TIME INCREMENT  1.952E-02
 
	UNSYMMETRIC PURE THREAD-BASED DIRECT SPARSE SOLVER RUNNING ON
 	1 HOST x 1 MPI RANK PER HOST x 1 THREAD PER RANK
        NUMBER OF EQUATIONS:  24
        NUMBER OF RHS:        1
        NUMBER OF FLOPS:      9.248e+03
        SOLVER ELAPSED TIME:  10ms

               CONVERGENCE CHECKS FOR EQUILIBRIUM ITERATION     1


 AVERAGE FORCE                       13.9       TIME AVG. FORCE        12.7    
 LARGEST SCALED RESIDUAL FORCE      6.224E-02   AT NODE          1   DOF  2
   INSTANCE: INSTANCE_SOIL                                                                   
  CORRESPONDING RESIDUAL FORCE      6.224E-02
 LARGEST INCREMENT OF DISP.        -1.952E-04   AT NODE          1   DOF  1
   INSTANCE: INSTANCE_SOIL                                                                   
 LARGEST CORRECTION TO DISP.        3.199E-06   AT NODE          2   DOF  3
   INSTANCE: INSTANCE_SOIL                                                                   
 ESTIMATE OF DISP.    CORRECTION    1.686E-06
          FORCE     EQUILIB. ACCEPTED BASED ON SMALL RESIDUAL AND ESTIMATED CORRECTION
          TIME INCREMENT MAY NOW INCREASE TO    4.391E-02

 ITERATION SUMMARY FOR THE INCREMENT:   1 TOTAL ITERATIONS, OF WHICH
   0 ARE SEVERE DISCONTINUITY ITERATIONS AND  1 ARE EQUILIBRIUM ITERATIONS.

 TIME INCREMENT COMPLETED  1.952E-02,  FRACTION OF STEP COMPLETED  1.000E-02
 STEP TIME COMPLETED       0.120    ,  TOTAL TIME COMPLETED        0.130    


  INCREMENT    33 STARTS. ATTEMPT NUMBER  1, TIME INCREMENT  4.391E-02
 too many attempt made for the increment of stress
 total time=  0.951436625157492      current increment time=
  4.829602256774580E-003 sstol=  1.000000000000000E-006 rtol=
  3.503749000820121E-007
 too many attempt made for the increment of stress
 total time=  0.951436625157464      current increment time=
  4.829602256774425E-003 sstol=  1.000000000000000E-006 rtol=
  3.503749000817968E-007
 too many attempt made for the increment of stress
 total time=  0.951436625157404      current increment time=
  4.829602256774129E-003 sstol=  1.000000000000000E-006 rtol=
  3.503749000820157E-007
 too many attempt made for the increment of stress
 total time=  0.951436625157578      current increment time=
  4.829602256775025E-003 sstol=  1.000000000000000E-006 rtol=
  3.503749000822188E-007
 too many attempt made for the increment of stress
 total time=  0.951436625157459      current increment time=
  4.829602256774371E-003 sstol=  1.000000000000000E-006 rtol=
  3.503749000821741E-007
 too many attempt made for the increment of stress
 total time=  0.951436625157851      current increment time=
  4.829602256776372E-003 sstol=  1.000000000000000E-006 rtol=
  3.503749000821551E-007
 too many attempt made for the increment of stress
 total time=  0.951436625157726      current increment time=
  4.829602256775763E-003 sstol=  1.000000000000000E-006 rtol=
  3.503749000822686E-007
 too many attempt made for the increment of stress
 total time=  0.951436625157664      current increment time=
  4.829602256775452E-003 sstol=  1.000000000000000E-006 rtol=
  3.503749000823257E-007
 
	UNSYMMETRIC PURE THREAD-BASED DIRECT SPARSE SOLVER RUNNING ON
 	1 HOST x 1 MPI RANK PER HOST x 1 THREAD PER RANK
        NUMBER OF EQUATIONS:  24
        NUMBER OF RHS:        1
        NUMBER OF FLOPS:      9.248e+03
        SOLVER ELAPSED TIME:  0ms
 too many attempt made for the increment of stress
 total time=  0.944868070937598      current increment time=
  4.796259299519058E-003 sstol=  1.000000000000000E-006 rtol=
  3.499596972505572E-007
 too many attempt made for the increment of stress
 total time=  0.944868070937467      current increment time=
  4.796259299518386E-003 sstol=  1.000000000000000E-006 rtol=
  3.499596972508294E-007
 too many attempt made for the increment of stress
 total time=  0.944868070937386      current increment time=
  4.796259299517995E-003 sstol=  1.000000000000000E-006 rtol=
  3.499596972501929E-007
 too many attempt made for the increment of stress
 total time=  0.944868070937690      current increment time=
  4.796259299519526E-003 sstol=  1.000000000000000E-006 rtol=
  3.499596972502818E-007
 too many attempt made for the increment of stress
 total time=  0.944868070937712      current increment time=
  4.796259299519655E-003 sstol=  1.000000000000000E-006 rtol=
  3.499596972509255E-007
 too many attempt made for the increment of stress
 total time=  0.944868070937587      current increment time=
  4.796259299519036E-003 sstol=  1.000000000000000E-006 rtol=
  3.499596972506113E-007
 too many attempt made for the increment of stress
 total time=  0.944868070937495      current increment time=
  4.796259299518558E-003 sstol=  1.000000000000000E-006 rtol=
  3.499596972505631E-007
 too many attempt made for the increment of stress
 total time=  0.944868070937451      current increment time=
  4.796259299518314E-003 sstol=  1.000000000000000E-006 rtol=
  3.499596972506731E-007
 

 ***NOTE: USER SUBROUTINE REQUESTS A TIME INCREMENT CHANGE.


  INCREMENT    33 STARTS. ATTEMPT NUMBER  2, TIME INCREMENT  2.195E-02
 
	UNSYMMETRIC PURE THREAD-BASED DIRECT SPARSE SOLVER RUNNING ON
 	1 HOST x 1 MPI RANK PER HOST x 1 THREAD PER RANK
        NUMBER OF EQUATIONS:  24
        NUMBER OF RHS:        1
        NUMBER OF FLOPS:      9.248e+03
        SOLVER ELAPSED TIME:  8ms

               CONVERGENCE CHECKS FOR EQUILIBRIUM ITERATION     1


 AVERAGE FORCE                       14.1       TIME AVG. FORCE        12.8    
 LARGEST SCALED RESIDUAL FORCE      5.980E-02   AT NODE          3   DOF  2
   INSTANCE: INSTANCE_SOIL                                                                   
  CORRESPONDING RESIDUAL FORCE      5.980E-02
 LARGEST INCREMENT OF DISP.        -2.195E-04   AT NODE          2   DOF  1
   INSTANCE: INSTANCE_SOIL                                                                   
 LARGEST CORRECTION TO DISP.        3.123E-06   AT NODE          3   DOF  2
   INSTANCE: INSTANCE_SOIL                                                                   
 ESTIMATE OF DISP.    CORRECTION    1.646E-06
          FORCE     EQUILIB. ACCEPTED BASED ON SMALL RESIDUAL AND ESTIMATED CORRECTION
          TIME INCREMENT MAY NOW INCREASE TO    3.805E-02

 ITERATION SUMMARY FOR THE INCREMENT:   1 TOTAL ITERATIONS, OF WHICH
   0 ARE SEVERE DISCONTINUITY ITERATIONS AND  1 ARE EQUILIBRIUM ITERATIONS.

 TIME INCREMENT COMPLETED  2.195E-02,  FRACTION OF STEP COMPLETED  1.183E-02
 STEP TIME COMPLETED       0.142    ,  TOTAL TIME COMPLETED        0.152    


  INCREMENT    34 STARTS. ATTEMPT NUMBER  1, TIME INCREMENT  3.805E-02
 
	UNSYMMETRIC PURE THREAD-BASED DIRECT SPARSE SOLVER RUNNING ON
 	1 HOST x 1 MPI RANK PER HOST x 1 THREAD PER RANK
        NUMBER OF EQUATIONS:  24
        NUMBER OF RHS:        1
        NUMBER OF FLOPS:      9.248e+03
        SOLVER ELAPSED TIME:  6ms

               CONVERGENCE CHECKS FOR EQUILIBRIUM ITERATION     1


 AVERAGE FORCE                       14.3       TIME AVG. FORCE        12.8    
 LARGEST SCALED RESIDUAL FORCE      7.451E-02   AT NODE          7   DOF  2
   INSTANCE: INSTANCE_SOIL                                                                   
  CORRESPONDING RESIDUAL FORCE      7.451E-02
 LARGEST INCREMENT OF DISP.        -3.805E-04   AT NODE          1   DOF  1
   INSTANCE: INSTANCE_SOIL                                                                   
 LARGEST CORRECTION TO DISP.        3.928E-06   AT NODE          7   DOF  2
   INSTANCE: INSTANCE_SOIL                                                                   
          FORCE     EQUILIBRIUM NOT ACHIEVED WITHIN TOLERANCE.
 
	UNSYMMETRIC PURE THREAD-BASED DIRECT SPARSE SOLVER RUNNING ON
 	1 HOST x 1 MPI RANK PER HOST x 1 THREAD PER RANK
        NUMBER OF EQUATIONS:  24
        NUMBER OF RHS:        1
        NUMBER OF FLOPS:      9.248e+03
        SOLVER ELAPSED TIME:  10ms

               CONVERGENCE CHECKS FOR EQUILIBRIUM ITERATION     2


 AVERAGE FORCE                       14.3       TIME AVG. FORCE        12.8    
 LARGEST SCALED RESIDUAL FORCE      3.952E-02   AT NODE          1   DOF  2
[...]
 LARGEST CORRECTION TO DISP.        4.221E-07   AT NODE          5   DOF  2
   INSTANCE: INSTANCE_SOIL                                                                   
          THE FORCE     EQUILIBRIUM EQUATIONS HAVE CONVERGED

 ITERATION SUMMARY FOR THE INCREMENT:   1 TOTAL ITERATIONS, OF WHICH
   0 ARE SEVERE DISCONTINUITY ITERATIONS AND  1 ARE EQUILIBRIUM ITERATIONS.

 TIME INCREMENT COMPLETED  6.000E-02,  FRACTION OF STEP COMPLETED  0.935    
 STEP TIME COMPLETED        11.2    ,  TOTAL TIME COMPLETED         11.2    


  INCREMENT   219 STARTS. ATTEMPT NUMBER  1, TIME INCREMENT  6.000E-02
 
	UNSYMMETRIC PURE THREAD-BASED DIRECT SPARSE SOLVER RUNNING ON
 	1 HOST x 1 MPI RANK PER HOST x 1 THREAD PER RANK
        NUMBER OF EQUATIONS:  24
        NUMBER OF RHS:        1
        NUMBER OF FLOPS:      9.248e+03
        SOLVER ELAPSED TIME:  10ms

               CONVERGENCE CHECKS FOR EQUILIBRIUM ITERATION     1


 AVERAGE FORCE                       22.0       TIME AVG. FORCE        19.3    
 LARGEST SCALED RESIDUAL FORCE      3.946E-03   AT NODE          5   DOF  2
   INSTANCE: INSTANCE_SOIL                                                                   
  CORRESPONDING RESIDUAL FORCE      3.946E-03
 LARGEST INCREMENT OF DISP.        -6.000E-04   AT NODE          1   DOF  1
   INSTANCE: INSTANCE_SOIL                                                                   
 LARGEST CORRECTION TO DISP.        4.224E-07   AT NODE          5   DOF  2
   INSTANCE: INSTANCE_SOIL                                                                   
          THE FORCE     EQUILIBRIUM EQUATIONS HAVE CONVERGED

 ITERATION SUMMARY FOR THE INCREMENT:   1 TOTAL ITERATIONS, OF WHICH
   0 ARE SEVERE DISCONTINUITY ITERATIONS AND  1 ARE EQUILIBRIUM ITERATIONS.

 TIME INCREMENT COMPLETED  6.000E-02,  FRACTION OF STEP COMPLETED  0.940    
 STEP TIME COMPLETED        11.3    ,  TOTAL TIME COMPLETED         11.3    


  INCREMENT   220 STARTS. ATTEMPT NUMBER  1, TIME INCREMENT  6.000E-02
 
	UNSYMMETRIC PURE THREAD-BASED DIRECT SPARSE SOLVER RUNNING ON
 	1 HOST x 1 MPI RANK PER HOST x 1 THREAD PER RANK
        NUMBER OF EQUATIONS:  24
        NUMBER OF RHS:        1
        NUMBER OF FLOPS:      9.248e+03
        SOLVER ELAPSED TIME:  10ms

               CONVERGENCE CHECKS FOR EQUILIBRIUM ITERATION     1


 AVERAGE FORCE                       22.0       TIME AVG. FORCE        19.3    
 LARGEST SCALED RESIDUAL FORCE      3.946E-03   AT NODE          6   DOF  3
   INSTANCE: INSTANCE_SOIL                                                                   
  CORRESPONDING RESIDUAL FORCE      3.946E-03
 LARGEST INCREMENT OF DISP.        -6.000E-04   AT NODE          1   DOF  1
   INSTANCE: INSTANCE_SOIL                                                                   
 LARGEST CORRECTION TO DISP.        4.228E-07   AT NODE          6   DOF  3
   INSTANCE: INSTANCE_SOIL                                                                   
          THE FORCE     EQUILIBRIUM EQUATIONS HAVE CONVERGED

 ITERATION SUMMARY FOR THE INCREMENT:   1 TOTAL ITERATIONS, OF WHICH
   0 ARE SEVERE DISCONTINUITY ITERATIONS AND  1 ARE EQUILIBRIUM ITERATIONS.

 TIME INCREMENT COMPLETED  6.000E-02,  FRACTION OF STEP COMPLETED  0.945    
 STEP TIME COMPLETED        11.3    ,  TOTAL TIME COMPLETED         11.4    


  INCREMENT   221 STARTS. ATTEMPT NUMBER  1, TIME INCREMENT  6.000E-02
 
	UNSYMMETRIC PURE THREAD-BASED DIRECT SPARSE SOLVER RUNNING ON
 	1 HOST x 1 MPI RANK PER HOST x 1 THREAD PER RANK
        NUMBER OF EQUATIONS:  24
        NUMBER OF RHS:        1
        NUMBER OF FLOPS:      9.248e+03
        SOLVER ELAPSED TIME:  10ms

               CONVERGENCE CHECKS FOR EQUILIBRIUM ITERATION     1


 AVERAGE FORCE                       22.0       TIME AVG. FORCE        19.3    
 LARGEST SCALED RESIDUAL FORCE      3.946E-03   AT NODE          5   DOF  3
   INSTANCE: INSTANCE_SOIL                                                                   
  CORRESPONDING RESIDUAL FORCE      3.946E-03
 LARGEST INCREMENT OF DISP.        -6.000E-04   AT NODE          1   DOF  1
   INSTANCE: INSTANCE_SOIL                                                                   
 LARGEST CORRECTION TO DISP.        4.232E-07   AT NODE          1   DOF  3
   INSTANCE: INSTANCE_SOIL                                                                   
          THE FORCE     EQUILIBRIUM EQUATIONS HAVE CONVERGED

 ITERATION SUMMARY FOR THE INCREMENT:   1 TOTAL ITERATIONS, OF WHICH
   0 ARE SEVERE DISCONTINUITY ITERATIONS AND  1 ARE EQUILIBRIUM ITERATIONS.

 TIME INCREMENT COMPLETED  6.000E-02,  FRACTION OF STEP COMPLETED  0.950    
 STEP TIME COMPLETED        11.4    ,  TOTAL TIME COMPLETED         11.4    


  INCREMENT   222 STARTS. ATTEMPT NUMBER  1, TIME INCREMENT  6.000E-02
 
	UNSYMMETRIC PURE THREAD-BASED DIRECT SPARSE SOLVER RUNNING ON
 	1 HOST x 1 MPI RANK PER HOST x 1 THREAD PER RANK
        NUMBER OF EQUATIONS:  24
        NUMBER OF RHS:        1
        NUMBER OF FLOPS:      9.248e+03
        SOLVER ELAPSED TIME:  9ms

               CONVERGENCE CHECKS FOR EQUILIBRIUM ITERATION     1


 AVERAGE FORCE                       22.0       TIME AVG. FORCE        19.3    
 LARGEST SCALED RESIDUAL FORCE      3.946E-03   AT NODE          7   DOF  2
   INSTANCE: INSTANCE_SOIL                                                                   
  CORRESPONDING RESIDUAL FORCE      3.946E-03
 LARGEST INCREMENT OF DISP.        -6.000E-04   AT NODE          1   DOF  1
   INSTANCE: INSTANCE_SOIL                                                                   
 LARGEST CORRECTION TO DISP.        4.236E-07   AT NODE          3   DOF  2
   INSTANCE: INSTANCE_SOIL                                                                   
          THE FORCE     EQUILIBRIUM EQUATIONS HAVE CONVERGED

 ITERATION SUMMARY FOR THE INCREMENT:   1 TOTAL ITERATIONS, OF WHICH
   0 ARE SEVERE DISCONTINUITY ITERATIONS AND  1 ARE EQUILIBRIUM ITERATIONS.

 TIME INCREMENT COMPLETED  6.000E-02,  FRACTION OF STEP COMPLETED  0.955    
 STEP TIME COMPLETED        11.5    ,  TOTAL TIME COMPLETED         11.5    


  INCREMENT   223 STARTS. ATTEMPT NUMBER  1, TIME INCREMENT  6.000E-02
 
	UNSYMMETRIC PURE THREAD-BASED DIRECT SPARSE SOLVER RUNNING ON
 	1 HOST x 1 MPI RANK PER HOST x 1 THREAD PER RANK
        NUMBER OF EQUATIONS:  24
        NUMBER OF RHS:        1
        NUMBER OF FLOPS:      9.248e+03
        SOLVER ELAPSED TIME:  9ms

               CONVERGENCE CHECKS FOR EQUILIBRIUM ITERATION     1


 AVERAGE FORCE                       22.0       TIME AVG. FORCE        19.3    
 LARGEST SCALED RESIDUAL FORCE      3.946E-03   AT NODE          6   DOF  3
   INSTANCE: INSTANCE_SOIL                                                                   
  CORRESPONDING RESIDUAL FORCE      3.946E-03
 LARGEST INCREMENT OF DISP.        -6.000E-04   AT NODE          1   DOF  1
   INSTANCE: INSTANCE_SOIL                                                                   
 LARGEST CORRECTION TO DISP.        4.239E-07   AT NODE          1   DOF  2
   INSTANCE: INSTANCE_SOIL                                                                   
          THE FORCE     EQUILIBRIUM EQUATIONS HAVE CONVERGED

 ITERATION SUMMARY FOR THE INCREMENT:   1 TOTAL ITERATIONS, OF WHICH
   0 ARE SEVERE DISCONTINUITY ITERATIONS AND  1 ARE EQUILIBRIUM ITERATIONS.

 TIME INCREMENT COMPLETED  6.000E-02,  FRACTION OF STEP COMPLETED  0.960    
 STEP TIME COMPLETED        11.5    ,  TOTAL TIME COMPLETED         11.5    


  INCREMENT   224 STARTS. ATTEMPT NUMBER  1, TIME INCREMENT  6.000E-02
 
	UNSYMMETRIC PURE THREAD-BASED DIRECT SPARSE SOLVER RUNNING ON
 	1 HOST x 1 MPI RANK PER HOST x 1 THREAD PER RANK
        NUMBER OF EQUATIONS:  24
        NUMBER OF RHS:        1
        NUMBER OF FLOPS:      9.248e+03
        SOLVER ELAPSED TIME:  10ms

               CONVERGENCE CHECKS FOR EQUILIBRIUM ITERATION     1


 AVERAGE FORCE                       22.0       TIME AVG. FORCE        19.3    
 LARGEST SCALED RESIDUAL FORCE      3.946E-03   AT NODE          1   DOF  3
   INSTANCE: INSTANCE_SOIL                                                                   
  CORRESPONDING RESIDUAL FORCE      3.946E-03
 LARGEST INCREMENT OF DISP.        -6.000E-04   AT NODE          1   DOF  1
   INSTANCE: INSTANCE_SOIL                                                                   
 LARGEST CORRECTION TO DISP.        4.243E-07   AT NODE          7   DOF  2
   INSTANCE: INSTANCE_SOIL                                                                   
          THE FORCE     EQUILIBRIUM EQUATIONS HAVE CONVERGED

 ITERATION SUMMARY FOR THE INCREMENT:   1 TOTAL ITERATIONS, OF WHICH
   0 ARE SEVERE DISCONTINUITY ITERATIONS AND  1 ARE EQUILIBRIUM ITERATIONS.

 TIME INCREMENT COMPLETED  6.000E-02,  FRACTION OF STEP COMPLETED  0.965    
 STEP TIME COMPLETED        11.6    ,  TOTAL TIME COMPLETED         11.6    


  INCREMENT   225 STARTS. ATTEMPT NUMBER  1, TIME INCREMENT  6.000E-02
 
	UNSYMMETRIC PURE THREAD-BASED DIRECT SPARSE SOLVER RUNNING ON
 	1 HOST x 1 MPI RANK PER HOST x 1 THREAD PER RANK
        NUMBER OF EQUATIONS:  24
        NUMBER OF RHS:        1
        NUMBER OF FLOPS:      9.248e+03
        SOLVER ELAPSED TIME:  9ms

               CONVERGENCE CHECKS FOR EQUILIBRIUM ITERATION     1


 AVERAGE FORCE                       22.0       TIME AVG. FORCE        19.3    
 LARGEST SCALED RESIDUAL FORCE      3.946E-03   AT NODE          1   DOF  3
   INSTANCE: INSTANCE_SOIL                                                                   
  CORRESPONDING RESIDUAL FORCE      3.946E-03
 LARGEST INCREMENT OF DISP.        -6.000E-04   AT NODE          1   DOF  1
   INSTANCE: INSTANCE_SOIL                                                                   
 LARGEST CORRECTION TO DISP.        4.247E-07   AT NODE          1   DOF  3
   INSTANCE: INSTANCE_SOIL                                                                   
          THE FORCE     EQUILIBRIUM EQUATIONS HAVE CONVERGED

 ITERATION SUMMARY FOR THE INCREMENT:   1 TOTAL ITERATIONS, OF WHICH
   0 ARE SEVERE DISCONTINUITY ITERATIONS AND  1 ARE EQUILIBRIUM ITERATIONS.

 TIME INCREMENT COMPLETED  6.000E-02,  FRACTION OF STEP COMPLETED  0.970    
 STEP TIME COMPLETED        11.6    ,  TOTAL TIME COMPLETED         11.7    


  INCREMENT   226 STARTS. ATTEMPT NUMBER  1, TIME INCREMENT  6.000E-02
 
	UNSYMMETRIC PURE THREAD-BASED DIRECT SPARSE SOLVER RUNNING ON
 	1 HOST x 1 MPI RANK PER HOST x 1 THREAD PER RANK
        NUMBER OF EQUATIONS:  24
        NUMBER OF RHS:        1
        NUMBER OF FLOPS:      9.248e+03
        SOLVER ELAPSED TIME:  10ms

               CONVERGENCE CHECKS FOR EQUILIBRIUM ITERATION     1


 AVERAGE FORCE                       22.1       TIME AVG. FORCE        19.4    
 LARGEST SCALED RESIDUAL FORCE      3.946E-03   AT NODE          3   DOF  2
   INSTANCE: INSTANCE_SOIL                                                                   
  CORRESPONDING RESIDUAL FORCE      3.946E-03
 LARGEST INCREMENT OF DISP.        -6.000E-04   AT NODE          1   DOF  1
   INSTANCE: INSTANCE_SOIL                                                                   
 LARGEST CORRECTION TO DISP.        4.251E-07   AT NODE          1   DOF  3
   INSTANCE: INSTANCE_SOIL                                                                   
          THE FORCE     EQUILIBRIUM EQUATIONS HAVE CONVERGED

 ITERATION SUMMARY FOR THE INCREMENT:   1 TOTAL ITERATIONS, OF WHICH
   0 ARE SEVERE DISCONTINUITY ITERATIONS AND  1 ARE EQUILIBRIUM ITERATIONS.

 TIME INCREMENT COMPLETED  6.000E-02,  FRACTION OF STEP COMPLETED  0.975    
 STEP TIME COMPLETED        11.7    ,  TOTAL TIME COMPLETED         11.7    


  INCREMENT   227 STARTS. ATTEMPT NUMBER  1, TIME INCREMENT  6.000E-02
 
	UNSYMMETRIC PURE THREAD-BASED DIRECT SPARSE SOLVER RUNNING ON
 	1 HOST x 1 MPI RANK PER HOST x 1 THREAD PER RANK
        NUMBER OF EQUATIONS:  24
        NUMBER OF RHS:        1
        NUMBER OF FLOPS:      9.248e+03
        SOLVER ELAPSED TIME:  10ms

               CONVERGENCE CHECKS FOR EQUILIBRIUM ITERATION     1


 AVERAGE FORCE                       22.1       TIME AVG. FORCE        19.4    
 LARGEST SCALED RESIDUAL FORCE      3.946E-03   AT NODE          1   DOF  2
   INSTANCE: INSTANCE_SOIL                                                                   
  CORRESPONDING RESIDUAL FORCE      3.946E-03
 LARGEST INCREMENT OF DISP.        -6.000E-04   AT NODE          1   DOF  1
   INSTANCE: INSTANCE_SOIL                                                                   
 LARGEST CORRECTION TO DISP.        4.255E-07   AT NODE          1   DOF  2
   INSTANCE: INSTANCE_SOIL                                                                   
          THE FORCE     EQUILIBRIUM EQUATIONS HAVE CONVERGED

 ITERATION SUMMARY FOR THE INCREMENT:   1 TOTAL ITERATIONS, OF WHICH
   0 ARE SEVERE DISCONTINUITY ITERATIONS AND  1 ARE EQUILIBRIUM ITERATIONS.

 TIME INCREMENT COMPLETED  6.000E-02,  FRACTION OF STEP COMPLETED  0.980    
 STEP TIME COMPLETED        11.8    ,  TOTAL TIME COMPLETED         11.8    


  INCREMENT   228 STARTS. ATTEMPT NUMBER  1, TIME INCREMENT  6.000E-02
 
	UNSYMMETRIC PURE THREAD-BASED DIRECT SPARSE SOLVER RUNNING ON
 	1 HOST x 1 MPI RANK PER HOST x 1 THREAD PER RANK
        NUMBER OF EQUATIONS:  24
        NUMBER OF RHS:        1
        NUMBER OF FLOPS:      9.248e+03
        SOLVER ELAPSED TIME:  9ms

               CONVERGENCE CHECKS FOR EQUILIBRIUM ITERATION     1


 AVERAGE FORCE                       22.1       TIME AVG. FORCE        19.4    
 LARGEST SCALED RESIDUAL FORCE      3.946E-03   AT NODE          1   DOF  2
   INSTANCE: INSTANCE_SOIL                                                                   
  CORRESPONDING RESIDUAL FORCE      3.946E-03
 LARGEST INCREMENT OF DISP.        -6.000E-04   AT NODE          1   DOF  1
   INSTANCE: INSTANCE_SOIL                                                                   
 LARGEST CORRECTION TO DISP.        4.259E-07   AT NODE          2   DOF  3
   INSTANCE: INSTANCE_SOIL                                                                   
          THE FORCE     EQUILIBRIUM EQUATIONS HAVE CONVERGED

 ITERATION SUMMARY FOR THE INCREMENT:   1 TOTAL ITERATIONS, OF WHICH
   0 ARE SEVERE DISCONTINUITY ITERATIONS AND  1 ARE EQUILIBRIUM ITERATIONS.

 TIME INCREMENT COMPLETED  6.000E-02,  FRACTION OF STEP COMPLETED  0.985    
 STEP TIME COMPLETED        11.8    ,  TOTAL TIME COMPLETED         11.8    


  INCREMENT   229 STARTS. ATTEMPT NUMBER  1, TIME INCREMENT  6.000E-02
 
	UNSYMMETRIC PURE THREAD-BASED DIRECT SPARSE SOLVER RUNNING ON
 	1 HOST x 1 MPI RANK PER HOST x 1 THREAD PER RANK
        NUMBER OF EQUATIONS:  24
        NUMBER OF RHS:        1
        NUMBER OF FLOPS:      9.248e+03
        SOLVER ELAPSED TIME:  9ms

               CONVERGENCE CHECKS FOR EQUILIBRIUM ITERATION     1


 AVERAGE FORCE                       22.1       TIME AVG. FORCE        19.4    
 LARGEST SCALED RESIDUAL FORCE      3.947E-03   AT NODE          5   DOF  2
   INSTANCE: INSTANCE_SOIL                                                                   
  CORRESPONDING RESIDUAL FORCE      3.947E-03
 LARGEST INCREMENT OF DISP.        -6.000E-04   AT NODE          1   DOF  1
   INSTANCE: INSTANCE_SOIL                                                                   
 LARGEST CORRECTION TO DISP.        4.263E-07   AT NODE          1   DOF  2
   INSTANCE: INSTANCE_SOIL                                                                   
          THE FORCE     EQUILIBRIUM EQUATIONS HAVE CONVERGED

 ITERATION SUMMARY FOR THE INCREMENT:   1 TOTAL ITERATIONS, OF WHICH
   0 ARE SEVERE DISCONTINUITY ITERATIONS AND  1 ARE EQUILIBRIUM ITERATIONS.

 TIME INCREMENT COMPLETED  6.000E-02,  FRACTION OF STEP COMPLETED  0.990    
 STEP TIME COMPLETED        11.9    ,  TOTAL TIME COMPLETED         11.9    


  INCREMENT   230 STARTS. ATTEMPT NUMBER  1, TIME INCREMENT  6.000E-02
 
	UNSYMMETRIC PURE THREAD-BASED DIRECT SPARSE SOLVER RUNNING ON
 	1 HOST x 1 MPI RANK PER HOST x 1 THREAD PER RANK
        NUMBER OF EQUATIONS:  24
        NUMBER OF RHS:        1
        NUMBER OF FLOPS:      9.248e+03
        SOLVER ELAPSED TIME:  9ms

               CONVERGENCE CHECKS FOR EQUILIBRIUM ITERATION     1


 AVERAGE FORCE                       22.1       TIME AVG. FORCE        19.4    
 LARGEST SCALED RESIDUAL FORCE      3.947E-03   AT NODE          5   DOF  2
   INSTANCE: INSTANCE_SOIL                                                                   
  CORRESPONDING RESIDUAL FORCE      3.947E-03
 LARGEST INCREMENT OF DISP.        -6.000E-04   AT NODE          1   DOF  1
   INSTANCE: INSTANCE_SOIL                                                                   
 LARGEST CORRECTION TO DISP.        4.267E-07   AT NODE          2   DOF  3
   INSTANCE: INSTANCE_SOIL                                                                   
          THE FORCE     EQUILIBRIUM EQUATIONS HAVE CONVERGED

 ITERATION SUMMARY FOR THE INCREMENT:   1 TOTAL ITERATIONS, OF WHICH
   0 ARE SEVERE DISCONTINUITY ITERATIONS AND  1 ARE EQUILIBRIUM ITERATIONS.

 TIME INCREMENT COMPLETED  6.000E-02,  FRACTION OF STEP COMPLETED  0.995    
 STEP TIME COMPLETED        11.9    ,  TOTAL TIME COMPLETED         12.0    


  INCREMENT   231 STARTS. ATTEMPT NUMBER  1, TIME INCREMENT  6.000E-02
 
	UNSYMMETRIC PURE THREAD-BASED DIRECT SPARSE SOLVER RUNNING ON
 	1 HOST x 1 MPI RANK PER HOST x 1 THREAD PER RANK
        NUMBER OF EQUATIONS:  24
        NUMBER OF RHS:        1
        NUMBER OF FLOPS:      9.248e+03
        SOLVER ELAPSED TIME:  10ms

               CONVERGENCE CHECKS FOR EQUILIBRIUM ITERATION     1


 AVERAGE FORCE                       22.1       TIME AVG. FORCE        19.4    
 LARGEST SCALED RESIDUAL FORCE      3.947E-03   AT NODE          5   DOF  2
   INSTANCE: INSTANCE_SOIL                                                                   
  CORRESPONDING RESIDUAL FORCE      3.947E-03
 LARGEST INCREMENT OF DISP.        -6.000E-04   AT NODE          1   DOF  1
   INSTANCE: INSTANCE_SOIL                                                                   
 LARGEST CORRECTION TO DISP.        4.271E-07   AT NODE          3   DOF  2
   INSTANCE: INSTANCE_SOIL                                                                   
          THE FORCE     EQUILIBRIUM EQUATIONS HAVE CONVERGED

 ITERATION SUMMARY FOR THE INCREMENT:   1 TOTAL ITERATIONS, OF WHICH
   0 ARE SEVERE DISCONTINUITY ITERATIONS AND  1 ARE EQUILIBRIUM ITERATIONS.

 TIME INCREMENT COMPLETED  6.000E-02,  FRACTION OF STEP COMPLETED   1.00    
 STEP TIME COMPLETED        12.0    ,  TOTAL TIME COMPLETED         12.0    


          THE ANALYSIS HAS BEEN COMPLETED



     ANALYSIS SUMMARY:
     TOTAL OF        232  INCREMENTS
                       4  CUTBACKS IN AUTOMATIC INCREMENTATION
                     245  ITERATIONS INCLUDING CONTACT ITERATIONS IF PRESENT
                     245  PASSES THROUGH THE EQUATION SOLVER OF WHICH 
                     245  INVOLVE MATRIX DECOMPOSITION, INCLUDING
                       0  DECOMPOSITION(S) OF THE MASS MATRIX
                       1  REORDERING OF EQUATIONS TO MINIMIZE WAVEFRONT
                       0  ADDITIONAL RESIDUAL EVALUATIONS FOR LINE SEARCHES
                       0  ADDITIONAL OPERATOR EVALUATIONS FOR LINE SEARCHES
                       2  WARNING MESSAGES DURING USER INPUT PROCESSING
                       0  WARNING MESSAGES DURING ANALYSIS
                       0  ANALYSIS WARNINGS ARE NUMERICAL PROBLEM MESSAGES
                       0  ANALYSIS WARNINGS ARE NEGATIVE EIGENVALUE MESSAGES
                       0  ERROR MESSAGES



     JOB TIME SUMMARY
       USER TIME (SEC)      =      15.    
       SYSTEM TIME (SEC)    =      1.5    
       TOTAL CPU TIME (SEC) =      17.    
       WALLCLOCK TIME (SEC) =           17
       MEMORY PEAK (GB)     =            0
