1

   Abaqus 2025                                  Date 24-12ÔÂ-2025   Time 01:35:42
   For use by Supplied by Team-SolidSQUAD under license from Dassault Systemes or its subsidiary.



                         The Abaqus Software is a product of:

                           Dassault Systemes Americas Corp.
                           1301 Atwood Avenue, Suite 101W
                              Johnston, RI 02919, USA
 


                   The Abaqus Software is available only under license
                   from Dassault Systemes or its subsidiary and may be
                   used or reproduced only in accordance with the terms
                   of such license.
 
                          On machine DESKTOP-36PS5N6 
                          you are authorized to run
                          Abaqus/Standard until 31-Dec-2055

                          Your site id is:  


 
                    For assistance or any other information you may
                    obtain contact information for your local office
                    from the world wide web at:

                      https://www.3ds.com/products-services/simulia/services-support/

 
                * * * * * * * * * * * * * * * * * * * * * * * * * * * * * * 
                *                                                         * 
                *                   *****************                     * 
                *                   *  N O T I C E  *                     * 
                *                   *****************                     * 
                *                                                         * 
                *                                                         * 
                *                       Abaqus 2025                       * 
                *                                                         * 
                *       BUILD ID: 2024_09_20-21.00.46 RELr427 198590      * 
                *                                                         * 
                *                                                         * 
                *  Please make sure you are using                         * 
                *  release Abaqus 2025 manuals                            * 
                *  plus the notes accompanying this release.              * 
                *                                                         * 
                *                                                         * 
                *                                                         * 
                *                                                         * 
                * * * * * * * * * * * * * * * * * * * * * * * * * * * * * * 


 



     PROCESSING PART, INSTANCE, AND ASSEMBLY INFORMATION
   *******************************************************


     END PROCESSING PART, INSTANCE, AND ASSEMBLY INFORMATION
   ***********************************************************




     OPTIONS BEING PROCESSED
   ***************************


  *Element, type=C3D8
  *Elset, elset=ASSEMBLY_INSTANCE_SOIL_SET-ALL
  *Elset, elset=ASSEMBLY_INSTANCE_SOIL_SET-INITIAL-STRESS
  *Elset, elset=ASSEMBLY_INSTANCE_SOIL_SET-X-BOTTOM
  *Elset, elset=ASSEMBLY_INSTANCE_SOIL_SET-X-TOP
  *Elset, elset=ASSEMBLY_INSTANCE_SOIL_SET-Y-BOTTOM
  *Elset, elset=ASSEMBLY_INSTANCE_SOIL_SET-Z-BOTTOM
  *Elset, elset=ASSEMBLY_INSTANCE_SOIL_SET-Z-TOP
  *Elset, elset=ASSEMBLY_INSTANCE_SOIL__SET-Y-TOP_S6
  *Elset, elset=ASSEMBLY_INSTANCE_SOIL__SURFACE-P_S2
  *Elset, elset=ASSEMBLY_INSTANCE_SOIL__SURFACE-P_S3
  *Elset, elset=ASSEMBLY_INSTANCE_SOIL__SURFACE-P_S6
  *heading
  *material, name=FABRIC_EVOLUTION_MODEL
  *density
  *depvar
  *usermaterial, constants=1, unsymm
  *initialconditions, type=SOLUTION, user
  *initialconditions, type=STRESS, user
  *solidsection, elset=ASSEMBLY_INSTANCE_SOIL_SET-ALL, material=FABRI
  *solidsection, elset=ASSEMBLY_INSTANCE_SOIL_SET-ALL, material=FABRI
  *surface, type=ELEMENT, name=ASSEMBLY_INSTANCE_SOIL_SET-Y-TOP
  *surface, type=ELEMENT, name=ASSEMBLY_INSTANCE_SOIL_SURFACE-P
  *surface, type=ELEMENT, name=ASSEMBLY_INSTANCE_SOIL_SET-Y-TOP
  *surface, type=ELEMENT, name=ASSEMBLY_INSTANCE_SOIL_SURFACE-P
  *initialconditions, type=SOLUTION, user
  *initialconditions, type=STRESS, user
  *boundary
  *boundary
  *boundary
  *boundary
  *boundary
  *boundary
  *boundary
  *surface, type=ELEMENT, name=ASSEMBLY_INSTANCE_SOIL_SET-Y-TOP
  *surface, type=ELEMENT, name=ASSEMBLY_INSTANCE_SOIL_SURFACE-P
  *output, field, frequency=0
  *output, history, frequency=0
  *output, field, timeinterval=0.06
  *output, history, frequency=0
  *elementoutput, elset=ASSEMBLY_INSTANCE_SOIL_SET-ALL, directions=YE
  *initialconditions, type=SOLUTION, user
  *initialconditions, type=STRESS, user
  *output, field, frequency=0
  *output, history, frequency=0
  *output, field, timeinterval=0.06
  *output, history, frequency=0
  *elementoutput, elset=ASSEMBLY_INSTANCE_SOIL_SET-ALL, directions=YE
  *initialconditions, type=SOLUTION, user
  *initialconditions, type=STRESS, user
  *initialconditions, type=SOLUTION, user
  *initialconditions, type=STRESS, user
  *initialconditions, type=SOLUTION, user
  *initialconditions, type=STRESS, user
  *output, field, frequency=0
  *output, history, frequency=0
  *output, field, timeinterval=0.06
  *output, history, frequency=0
  *elementoutput, elset=ASSEMBLY_INSTANCE_SOIL_SET-ALL, directions=YE
  *step, name=consolidation, nlgeom=NO, inc=1000
  *step, name=Shear, nlgeom=YES, inc=10000, unsymm=YES
  *step, name=consolidation, nlgeom=NO, inc=1000
  *output, field, frequency=0
  *output, history, frequency=0
  *step, name=Shear, nlgeom=YES, inc=10000, unsymm=YES
  *output, field, timeinterval=0.06
  *output, history, frequency=0
  *step, name=consolidation, nlgeom=NO, inc=1000
  *step, name=Shear, nlgeom=YES, inc=10000, unsymm=YES
  *step, name=consolidation, nlgeom=NO, inc=1000
  *static
  *dsload
  *output, field, frequency=0
  *output, history, frequency=0
  *endstep
  *step, name=Shear, nlgeom=YES, inc=10000, unsymm=YES
  *static
  *boundary
  *output, field, timeinterval=0.06
  *nodeoutput, nset=ASSEMBLY_INSTANCE_SOIL_SET-ALL, variable=PRESELEC
  *elementoutput, elset=ASSEMBLY_INSTANCE_SOIL_SET-ALL, directions=YE
  *contactoutput, nset=ASSEMBLY_INSTANCE_SOIL_SET-ALL, variable=PRESE
  *output, history, frequency=0
  *endstep

 ***WARNING: THE NLGEOM FLAG WAS NOT ACTIVE IN THE PREVIOUS GENERAL 
             (NON-PERTURBATION) STEP.  THE ACTIVATION OF NLGEOM IN THE CURRENT 
             STEP MAY CAUSE CONVERGENCE PROBLEMS IF THE DISPLACEMENTS AT THE 
             END OF THE PREVIOUS GENERAL STEP ARE NOT SMALL.  DISCONTINUITIES 
             IN DISPLACEMENT RESPONSE HISTORIES SHOULD ALSO BE EXPECTED.

 ***WARNING: OUTPUT AT EXACT, PREDEFINED TIME POINTS WAS REQUESTED IN THIS 
             STEP. IN ORDER TO WRITE OUTPUT AT EXACT TIME POINTS SPECIFIED, 
             Abaqus MIGHT USE TIME INCREMENTS SMALLER THAN THE MINIMUM TIME 
             INCREMENT ALLOWED IN THE STEP. IN ADDITION, THE NUMBER OF 
             INCREMENTS REQUIRED TO COMPLETE THE STEP WILL IN GENERAL INCREASE.
  *boundary
  *boundary
  *boundary
  *step, name=consolidation, nlgeom=NO, inc=1000
  *static
  *endstep
  *step, name=Shear, nlgeom=YES, inc=10000, unsymm=YES
  *static
  *boundary
  *endstep

     - (RAMP) OR (STEP) - INDICATE USE OF DEFAULT AMPLITUDES ASSOCIATED WITH THE STEP

     - (RAMP) OR (STEP) - INDICATE USE OF DEFAULT AMPLITUDES ASSOCIATED WITH THE STEP



                            P R O B L E M   S I Z E


          NUMBER OF ELEMENTS IS                                     1
          NUMBER OF NODES IS                                        8
          NUMBER OF NODES DEFINED BY THE USER                       8
          TOTAL NUMBER OF VARIABLES IN THE MODEL                   24
          (DEGREES OF FREEDOM PLUS MAX NO. OF ANY LAGRANGE MULTIPLIER
           VARIABLES. INCLUDE *PRINT,SOLVE=YES TO GET THE ACTUAL NUMBER.)



                              END OF USER INPUT PROCESSING



     JOB TIME SUMMARY
       USER TIME (SEC)      =     0.10    
       SYSTEM TIME (SEC)    =     0.10    
       TOTAL CPU TIME (SEC) =     0.20    
       WALLCLOCK TIME (SEC) =            1
1

   Abaqus 2025                                  Date 24-12ÔÂ-2025   Time 01:35:53
   For use by Supplied by Team-SolidSQUAD under license from Dassault Systemes or its subsidiary.

                                                                                               STEP    1  INCREMENT    1
                                                                                          TIME COMPLETED IN THIS STEP   0.00    


                        S T E P       1     S T A T I C   A N A L Y S I S


                                                                                          

     AUTOMATIC TIME CONTROL WITH -
          A SUGGESTED INITIAL TIME INCREMENT OF                1.000E-02
          AND A TOTAL TIME PERIOD OF                           1.000E-02
          THE MINIMUM TIME INCREMENT ALLOWED IS                1.000E-08
          THE MAXIMUM TIME INCREMENT ALLOWED IS                1.000E-02

     LINEAR EQUATION SOLVER TYPE         DIRECT SPARSE

          UNSYMMETRIC MATRIX STORAGE AND SOLUTION WILL BE USED
 ==============================================================
 noel =            1  npt =            1  number =            0
 ==============================================================
 Stress Tensor : 
Row 1: [100.00,   0.00,   0.00]
Row 2: [  0.00, 100.00,   0.00]
Row 3: [  0.00,   0.00, 100.00]
 Fabric Tensor : 
Row 1: [  0.37,   0.00,   0.00]
Row 2: [  0.00,  -0.18,   0.00]
Row 3: [  0.00,   0.00,  -0.18]
Hardening =  1.000000E-02
mean stress = 100.00   deviatoric stress =   0.00
ratio stress =   0.00
fabric norm =   0.45   anisotropy =   0.45
volumetric strain =   0.00   shear strain =   0.00
Dkp =             NaN   dilatancy =      0.078
 ==============================================================
 noel =            1  npt =            1  number =            1
 ==============================================================
 Stress Tensor : 
Row 1: [100.00,   0.00,   0.00]
Row 2: [  0.00, 100.00,   0.00]
Row 3: [  0.00,   0.00, 100.00]
 Fabric Tensor : 
Row 1: [  0.37,   0.00,   0.00]
Row 2: [  0.00,  -0.18,   0.00]
Row 3: [  0.00,   0.00,  -0.18]
Hardening =  1.000000E-02
mean stress = 100.00   deviatoric stress =   0.00
ratio stress =   0.00
fabric norm =   0.45   anisotropy =   0.45
volumetric strain =   0.00   shear strain =   0.00
Dkp =             NaN   dilatancy =      0.078
  
                   M E M O R Y   E S T I M A T E
  
 PROCESS      FLOATING PT       MINIMUM MEMORY        MEMORY TO
              OPERATIONS           REQUIRED          MINIMIZE I/O
             PER ITERATION           (MB)               (MB)
  
     1          9.25E+03               17                 24
  
 NOTE:
      (1) SINCE ABAQUS DOES NOT PRE-ALLOCATE MEMORY AND ONLY ALLOCATES MEMORY AS NEEDED DURING THE ANALYSIS,
          THE MEMORY REQUIREMENT PRINTED HERE CAN ONLY BE VIEWED AS A GENERAL GUIDELINE BASED ON THE BEST
          KNOWLEDGE AVAILABLE AT THE BEGINNING OF A STEP BEFORE THE SOLUTION PROCESS HAS BEGUN.
      (2) THE ESTIMATE IS NORMALLY UPDATED AT THE BEGINNING OF EVERY STEP. IT IS THE MAXIMUM VALUE OF THE
          ESTIMATE FROM THE CURRENT STEP TO THE LAST STEP OF THE ANALYSIS, WITH UNSYMMETRIC SOLUTION TAKEN
          INTO ACCOUNT IF APPLICABLE. 
      (3) SINCE THE ESTIMATE IS BASED ON THE ACTIVE DEGREES OF FREEDOM IN THE FIRST ITERATION OF THE 
          CURRENT STEP, THE MEMORY ESTIMATE MIGHT BE SIGNIFICANTLY DIFFERENT THAN ACTUAL USAGE FOR 
          PROBLEMS WITH SUBSTANTIAL CHANGES IN ACTIVE DEGREES OF FREEDOM BETWEEN STEPS (OR EVEN WITHIN
          THE SAME STEP). EXAMPLES ARE: PROBLEMS WITH SIGNIFICANT CONTACT CHANGES, PROBLEMS WITH MODEL
          CHANGE, PROBLEMS WITH BOTH STATIC STEP AND STEADY STATE DYNAMIC PROCEDURES WHERE ACOUSTIC 
          ELEMENTS WILL ONLY BE ACTIVATED IN THE STEADY STATE DYNAMIC STEPS.
      (4) FOR MULTI-PROCESS EXECUTION, THE ESTIMATED VALUE OF FLOATING POINT OPERATIONS FOR EACH PROCESS
          IS BASED ON AN INITIAL SCHEDULING OF OPERATIONS AND MIGHT NOT REFLECT THE ACTUAL FLOATING 
          POINT OPERATIONS COMPLETED ON EACH PROCESS. OPERATIONS ARE DYNAMICALLY BALANCED DURING EXECUTION, 
          SO THE ACTUAL BALANCE OF OPERATIONS BETWEEN PROCESSES IS EXPECTED TO BE BETTER THAN THE ESTIMATE
          PRINTED HERE.
      (5) THE UPPER LIMIT OF MEMORY THAT CAN BE ALLOCATED BY ABAQUS WILL IN GENERAL DEPEND ON THE VALUE OF
          THE "MEMORY" PARAMETER AND THE AMOUNT OF PHYSICAL MEMORY AVAILABLE ON THE MACHINE. PLEASE SEE
          THE "ABAQUS ANALYSIS USER'S MANUAL" FOR MORE DETAILS. THE ACTUAL USAGE OF MEMORY AND OF DISK
          SPACE FOR SCRATCH DATA WILL DEPEND ON THIS UPPER LIMIT AS WELL AS THE MEMORY REQUIRED TO MINIMIZE
          I/O. IF THE MEMORY UPPER LIMIT IS GREATER THAN THE MEMORY REQUIRED TO MINIMIZE I/O, THEN THE ACTUAL
          MEMORY USAGE WILL BE CLOSE TO THE ESTIMATED "MEMORY TO MINIMIZE I/O" VALUE, AND THE SCRATCH DISK
          USAGE WILL BE CLOSE-TO-ZERO; OTHERWISE, THE ACTUAL MEMORY USED WILL BE CLOSE TO THE PREVIOUSLY
          MENTIONED MEMORY LIMIT, AND THE SCRATCH DISK USAGE WILL BE ROUGHLY PROPORTIONAL TO THE DIFFERENCE
          BETWEEN THE ESTIMATED "MEMORY TO MINIMIZE I/O" AND THE MEMORY UPPER LIMIT. HOWEVER ACCURATE
          ESTIMATE OF THE SCRATCH DISK SPACE IS NOT POSSIBLE.
      (6) USING "*RESTART, WRITE" CAN GENERATE A LARGE AMOUNT OF DATA WRITTEN IN THE WORK DIRECTORY.
 ==============================================================
 noel =            1  npt =            1  number =            2
 ==============================================================
 Stress Tensor : 
Row 1: [100.00,  -0.00,   0.00]
Row 2: [ -0.00, 100.00,   0.00]
Row 3: [  0.00,   0.00, 100.00]
 Fabric Tensor : 
Row 1: [  0.37,   0.00,   0.00]
Row 2: [  0.00,  -0.18,   0.00]
Row 3: [  0.00,   0.00,  -0.18]
Hardening =  1.000000E-02
mean stress = 100.00   deviatoric stress =   0.00
ratio stress =   0.00
fabric norm =   0.45   anisotropy =   0.45
volumetric strain =  -0.00   shear strain =   0.00
Dkp =    0.360003E+18   dilatancy =      0.078
1

   Abaqus 2025                                  Date 24-12ÔÂ-2025   Time 01:35:53
   For use by Supplied by Team-SolidSQUAD under license from Dassault Systemes or its subsidiary.

                                                                                               STEP    2  INCREMENT    1
                                                                                          TIME COMPLETED IN THIS STEP   0.00    


                        S T E P       2     S T A T I C   A N A L Y S I S


                                                                                          

     AUTOMATIC TIME CONTROL WITH -
          A SUGGESTED INITIAL TIME INCREMENT OF                1.000E-06
          AND A TOTAL TIME PERIOD OF                            12.0    
          THE MINIMUM TIME INCREMENT ALLOWED IS                1.000E-08
          THE MAXIMUM TIME INCREMENT ALLOWED IS                6.000E-02

     LINEAR EQUATION SOLVER TYPE         DIRECT SPARSE

          LARGE DISPLACEMENT THEORY WILL BE USED

          UNSYMMETRIC MATRIX STORAGE AND SOLUTION WILL BE USED
 ==============================================================
 noel =            1  npt =            1  number =            3
 ==============================================================
 Stress Tensor : 
Row 1: [100.00,  -0.00,   0.00]
Row 2: [ -0.00, 100.00,   0.00]
Row 3: [  0.00,   0.00, 100.00]
 Fabric Tensor : 
Row 1: [  0.37,   0.00,   0.00]
Row 2: [  0.00,  -0.18,   0.00]
Row 3: [  0.00,   0.00,  -0.18]
Hardening =  1.000000E-02
mean stress = 100.00   deviatoric stress =   0.00
ratio stress =   0.00
fabric norm =   0.45   anisotropy =   0.45
volumetric strain =  -0.00   shear strain =   0.00
Dkp =    0.360003E+18   dilatancy =      0.078
  
                   M E M O R Y   E S T I M A T E
  
 PROCESS      FLOATING PT       MINIMUM MEMORY        MEMORY TO
              OPERATIONS           REQUIRED          MINIMIZE I/O
             PER ITERATION           (MB)               (MB)
  
     1          9.25E+03               17                 24
  
 NOTE:
      (1) SINCE ABAQUS DOES NOT PRE-ALLOCATE MEMORY AND ONLY ALLOCATES MEMORY AS NEEDED DURING THE ANALYSIS,
          THE MEMORY REQUIREMENT PRINTED HERE CAN ONLY BE VIEWED AS A GENERAL GUIDELINE BASED ON THE BEST
          KNOWLEDGE AVAILABLE AT THE BEGINNING OF A STEP BEFORE THE SOLUTION PROCESS HAS BEGUN.
      (2) THE ESTIMATE IS NORMALLY UPDATED AT THE BEGINNING OF EVERY STEP. IT IS THE MAXIMUM VALUE OF THE
          ESTIMATE FROM THE CURRENT STEP TO THE LAST STEP OF THE ANALYSIS, WITH UNSYMMETRIC SOLUTION TAKEN
          INTO ACCOUNT IF APPLICABLE. 
      (3) SINCE THE ESTIMATE IS BASED ON THE ACTIVE DEGREES OF FREEDOM IN THE FIRST ITERATION OF THE 
          CURRENT STEP, THE MEMORY ESTIMATE MIGHT BE SIGNIFICANTLY DIFFERENT THAN ACTUAL USAGE FOR 
          PROBLEMS WITH SUBSTANTIAL CHANGES IN ACTIVE DEGREES OF FREEDOM BETWEEN STEPS (OR EVEN WITHIN
          THE SAME STEP). EXAMPLES ARE: PROBLEMS WITH SIGNIFICANT CONTACT CHANGES, PROBLEMS WITH MODEL
          CHANGE, PROBLEMS WITH BOTH STATIC STEP AND STEADY STATE DYNAMIC PROCEDURES WHERE ACOUSTIC 
          ELEMENTS WILL ONLY BE ACTIVATED IN THE STEADY STATE DYNAMIC STEPS.
      (4) FOR MULTI-PROCESS EXECUTION, THE ESTIMATED VALUE OF FLOATING POINT OPERATIONS FOR EACH PROCESS
          IS BASED ON AN INITIAL SCHEDULING OF OPERATIONS AND MIGHT NOT REFLECT THE ACTUAL FLOATING 
          POINT OPERATIONS COMPLETED ON EACH PROCESS. OPERATIONS ARE DYNAMICALLY BALANCED DURING EXECUTION, 
          SO THE ACTUAL BALANCE OF OPERATIONS BETWEEN PROCESSES IS EXPECTED TO BE BETTER THAN THE ESTIMATE
          PRINTED HERE.
      (5) THE UPPER LIMIT OF MEMORY THAT CAN BE ALLOCATED BY ABAQUS WILL IN GENERAL DEPEND ON THE VALUE OF
          THE "MEMORY" PARAMETER AND THE AMOUNT OF PHYSICAL MEMORY AVAILABLE ON THE MACHINE. PLEASE SEE
          THE "ABAQUS ANALYSIS USER'S MANUAL" FOR MORE DETAILS. THE ACTUAL USAGE OF MEMORY AND OF DISK
          SPACE FOR SCRATCH DATA WILL DEPEND ON THIS UPPER LIMIT AS WELL AS THE MEMORY REQUIRED TO MINIMIZE
          I/O. IF THE MEMORY UPPER LIMIT IS GREATER THAN THE MEMORY REQUIRED TO MINIMIZE I/O, THEN THE ACTUAL
          MEMORY USAGE WILL BE CLOSE TO THE ESTIMATED "MEMORY TO MINIMIZE I/O" VALUE, AND THE SCRATCH DISK
          USAGE WILL BE CLOSE-TO-ZERO; OTHERWISE, THE ACTUAL MEMORY USED WILL BE CLOSE TO THE PREVIOUSLY
          MENTIONED MEMORY LIMIT, AND THE SCRATCH DISK USAGE WILL BE ROUGHLY PROPORTIONAL TO THE DIFFERENCE
          BETWEEN THE ESTIMATED "MEMORY TO MINIMIZE I/O" AND THE MEMORY UPPER LIMIT. HOWEVER ACCURATE
          ESTIMATE OF THE SCRATCH DISK SPACE IS NOT POSSIBLE.
      (6) USING "*RESTART, WRITE" CAN GENERATE A LARGE AMOUNT OF DATA WRITTEN IN THE WORK DIRECTORY.
 ==============================================================
 noel =            1  npt =            1  number =            4
 ==============================================================
 Stress Tensor : 
Row 1: [100.00,   0.00,   0.00]
Row 2: [  0.00, 100.00,  -0.00]
Row 3: [  0.00,  -0.00, 100.00]
 Fabric Tensor : 
Row 1: [  0.37,  -0.00,   0.00]
Row 2: [ -0.00,  -0.18,   0.00]
Row 3: [  0.00,   0.00,  -0.18]
Hardening =  1.000000E-02
mean stress = 100.00   deviatoric stress =   0.00
ratio stress =   0.00
fabric norm =   0.45   anisotropy =   0.45
volumetric strain =   0.00   shear strain =   0.00
Dkp =    0.218962E+08   dilatancy =      0.078
 ==============================================================
 noel =            1  npt =            1  number =            5
 ==============================================================
 Stress Tensor : 
Row 1: [100.00,   0.00,   0.00]
Row 2: [  0.00, 100.00,  -0.00]
Row 3: [  0.00,  -0.00, 100.00]
 Fabric Tensor : 
Row 1: [  0.37,  -0.00,   0.00]
Row 2: [ -0.00,  -0.18,   0.00]
Row 3: [  0.00,   0.00,  -0.18]
Hardening =  1.000000E-02
mean stress = 100.00   deviatoric stress =   0.00
ratio stress =   0.00
fabric norm =   0.45   anisotropy =   0.45
volumetric strain =   0.00   shear strain =   0.00
Dkp =    0.109480E+08   dilatancy =      0.078
 ==============================================================
 noel =            1  npt =            1  number =            6
 ==============================================================
 Stress Tensor : 
Row 1: [100.00,  -0.00,  -0.00]
Row 2: [ -0.00, 100.00,  -0.00]
Row 3: [ -0.00,  -0.00, 100.00]
 Fabric Tensor : 
Row 1: [  0.37,   0.00,   0.00]
Row 2: [  0.00,  -0.18,   0.00]
Row 3: [  0.00,   0.00,  -0.18]
Hardening =  1.000000E-02
mean stress = 100.00   deviatoric stress =   0.00
ratio stress =   0.00
fabric norm =   0.45   anisotropy =   0.45
volumetric strain =   0.00   shear strain =   0.00
Dkp =    0.109571E+08   dilatancy =      0.078
 ==============================================================
 noel =            1  npt =            1  number =            7
 ==============================================================
 Stress Tensor : 
Row 1: [100.00,  -0.00,  -0.00]
Row 2: [ -0.00, 100.00,   0.00]
Row 3: [ -0.00,   0.00, 100.00]
 Fabric Tensor : 
Row 1: [  0.37,   0.00,   0.00]
Row 2: [  0.00,  -0.18,   0.00]
Row 3: [  0.00,   0.00,  -0.18]
Hardening =  1.000000E-02
mean stress = 100.00   deviatoric stress =   0.00
ratio stress =   0.00
fabric norm =   0.45   anisotropy =   0.45
volumetric strain =   0.00   shear strain =   0.00
Dkp =    0.626337E+07   dilatancy =      0.078
 ==============================================================
 noel =            1  npt =            1  number =            8
 ==============================================================
 Stress Tensor : 
Row 1: [100.00,  -0.00,  -0.00]
Row 2: [ -0.00, 100.00,   0.00]
Row 3: [ -0.00,   0.00, 100.00]
 Fabric Tensor : 
Row 1: [  0.37,   0.00,   0.00]
Row 2: [  0.00,  -0.18,   0.00]
Row 3: [  0.00,   0.00,  -0.18]
Hardening =  1.000000E-02
mean stress = 100.00   deviatoric stress =   0.00
ratio stress =   0.00
fabric norm =   0.45   anisotropy =   0.45
volumetric strain =   0.00   shear strain =   0.00
Dkp =    0.626117E+07   dilatancy =      0.078
 ==============================================================
 noel =            1  npt =            1  number =            9
 ==============================================================
 Stress Tensor : 
Row 1: [100.00,  -0.00,  -0.00]
Row 2: [ -0.00, 100.00,   0.00]
Row 3: [ -0.00,   0.00, 100.00]
 Fabric Tensor : 
Row 1: [  0.37,  -0.00,   0.00]
Row 2: [ -0.00,  -0.18,   0.00]
Row 3: [  0.00,   0.00,  -0.18]
Hardening =  1.000000E-02
mean stress = 100.00   deviatoric stress =   0.00
ratio stress =   0.00
fabric norm =   0.45   anisotropy =   0.45
volumetric strain =   0.00   shear strain =   0.00
Dkp =    0.381111E+07   dilatancy =      0.078
 ==============================================================
 noel =            1  npt =            1  number =           10
 ==============================================================
 Stress Tensor : 
Row 1: [100.00,   0.00,   0.00]
Row 2: [  0.00, 100.00,  -0.00]
Row 3: [  0.00,  -0.00, 100.00]
 Fabric Tensor : 
Row 1: [  0.37,  -0.00,   0.00]
Row 2: [ -0.00,  -0.18,   0.00]
Row 3: [  0.00,   0.00,  -0.18]
Hardening =  1.000000E-02
mean stress = 100.00   deviatoric stress =   0.00
ratio stress =   0.00
fabric norm =   0.45   anisotropy =   0.45
volumetric strain =   0.00   shear strain =   0.00
Dkp =    0.381111E+07   dilatancy =      0.078
 ==============================================================
 noel =            1  npt =            1  number =           11
 ==============================================================
 Stress Tensor : 
Row 1: [100.01,   0.00,   0.00]
Row 2: [  0.00, 100.00,  -0.00]
Row 3: [  0.00,  -0.00, 100.00]
 Fabric Tensor : 
Row 1: [  0.37,  -0.00,  -0.00]
Row 2: [ -0.00,  -0.18,   0.00]
Row 3: [ -0.00,   0.00,  -0.18]
Hardening =  1.000000E-02
mean stress = 100.00   deviatoric stress =   0.01
ratio stress =   0.00
fabric norm =   0.45   anisotropy =   0.45
volumetric strain =   0.00   shear strain =   0.00
Dkp =    0.240148E+07   dilatancy =      0.078
 ==============================================================
 noel =            1  npt =            1  number =           12
 ==============================================================
 Stress Tensor : 
Row 1: [100.01,   0.00,   0.00]
Row 2: [  0.00, 100.00,  -0.00]
Row 3: [  0.00,  -0.00, 100.00]
 Fabric Tensor : 
Row 1: [  0.37,  -0.00,   0.00]
Row 2: [ -0.00,  -0.18,   0.00]
Row 3: [  0.00,   0.00,  -0.18]
Hardening =  1.000000E-02
mean stress = 100.00   deviatoric stress =   0.01
ratio stress =   0.00
fabric norm =   0.45   anisotropy =   0.45
volumetric strain =   0.00   shear strain =   0.00
Dkp =    0.240148E+07   dilatancy =      0.078
 ==============================================================
 noel =            1  npt =            1  number =           13
 ==============================================================
 Stress Tensor : 
Row 1: [100.01,  -0.00,   0.00]
Row 2: [ -0.00, 100.00,  -0.00]
Row 3: [  0.00,  -0.00, 100.00]
 Fabric Tensor : 
Row 1: [  0.37,   0.00,   0.00]
Row 2: [  0.00,  -0.18,   0.00]
Row 3: [  0.00,   0.00,  -0.18]
Hardening =  1.000000E-02
mean stress = 100.00   deviatoric stress =   0.01
ratio stress =   0.00
fabric norm =   0.45   anisotropy =   0.45
volumetric strain =   0.00   shear strain =   0.00
Dkp =    0.154453E+07   dilatancy =      0.078
 ==============================================================
 noel =            1  npt =            1  number =           14
 ==============================================================
 Stress Tensor : 
Row 1: [100.01,  -0.00,   0.00]
Row 2: [ -0.00, 100.00,  -0.00]
Row 3: [  0.00,  -0.00, 100.00]
 Fabric Tensor : 
Row 1: [  0.37,   0.00,  -0.00]
Row 2: [  0.00,  -0.18,   0.00]
Row 3: [ -0.00,   0.00,  -0.18]
Hardening =  1.000000E-02
mean stress = 100.00   deviatoric stress =   0.01
ratio stress =   0.00
fabric norm =   0.45   anisotropy =   0.45
volumetric strain =   0.00   shear strain =   0.00
Dkp =    0.154453E+07   dilatancy =      0.078
 ==============================================================
 noel =            1  npt =            1  number =           15
 ==============================================================
 Stress Tensor : 
Row 1: [100.02,  -0.00,   0.00]
Row 2: [ -0.00, 100.00,   0.00]
Row 3: [  0.00,   0.00, 100.00]
 Fabric Tensor : 
Row 1: [  0.37,   0.00,  -0.00]
Row 2: [  0.00,  -0.18,   0.00]
Row 3: [ -0.00,   0.00,  -0.18]
Hardening =  1.000000E-02
mean stress = 100.01   deviatoric stress =   0.02
ratio stress =   0.00
fabric norm =   0.45   anisotropy =   0.45
volumetric strain =   0.00   shear strain =   0.00
Dkp =    0.100602E+07   dilatancy =      0.078
 ==============================================================
 noel =            1  npt =            1  number =           16
 ==============================================================
 Stress Tensor : 
Row 1: [100.02,  -0.00,  -0.00]
Row 2: [ -0.00, 100.00,   0.00]
Row 3: [ -0.00,   0.00, 100.00]
 Fabric Tensor : 
Row 1: [  0.37,   0.00,   0.00]
Row 2: [  0.00,  -0.18,   0.00]
Row 3: [  0.00,   0.00,  -0.18]
Hardening =  1.000000E-02
mean stress = 100.01   deviatoric stress =   0.02
ratio stress =   0.00
fabric norm =   0.45   anisotropy =   0.45
volumetric strain =   0.00   shear strain =   0.00
Dkp =    0.100602E+07   dilatancy =      0.078
 ==============================================================
 noel =            1  npt =            1  number =           17
 ==============================================================
 Stress Tensor : 
Row 1: [100.03,   0.00,  -0.00]
Row 2: [  0.00, 100.00,   0.00]
Row 3: [ -0.00,   0.00, 100.00]
 Fabric Tensor : 
Row 1: [  0.37,  -0.00,   0.00]
Row 2: [ -0.00,  -0.18,   0.00]
Row 3: [  0.00,   0.00,  -0.18]
Hardening =  1.000000E-02
mean stress = 100.01   deviatoric stress =   0.03
ratio stress =   0.00
fabric norm =   0.45   anisotropy =   0.45
volumetric strain =   0.00   shear strain =   0.00
Dkp =    0.660536E+06   dilatancy =      0.078
 ==============================================================
 noel =            1  npt =            1  number =           18
 ==============================================================
 Stress Tensor : 
Row 1: [100.03,  -0.00,   0.00]
Row 2: [ -0.00, 100.00,   0.00]
Row 3: [  0.00,   0.00, 100.00]
 Fabric Tensor : 
Row 1: [  0.37,   0.00,   0.00]
Row 2: [  0.00,  -0.18,   0.00]
Row 3: [  0.00,   0.00,  -0.18]
Hardening =  1.000000E-02
mean stress = 100.01   deviatoric stress =   0.03
ratio stress =   0.00
fabric norm =   0.45   anisotropy =   0.45
volumetric strain =   0.00   shear strain =   0.00
Dkp =    0.660536E+06   dilatancy =      0.078
 ==============================================================
 noel =            1  npt =            1  number =           19
 ==============================================================
 Stress Tensor : 
Row 1: [100.04,  -0.00,   0.00]
Row 2: [ -0.00, 100.00,   0.00]
Row 3: [  0.00,   0.00, 100.00]
 Fabric Tensor : 
Row 1: [  0.37,   0.00,  -0.00]
Row 2: [  0.00,  -0.18,   0.00]
Row 3: [ -0.00,   0.00,  -0.18]
Hardening =  1.000000E-02
mean stress = 100.01   deviatoric stress =   0.04
ratio stress =   0.00
fabric norm =   0.45   anisotropy =   0.45
volumetric strain =   0.00   shear strain =   0.00
Dkp =    0.435943E+06   dilatancy =      0.078
 ==============================================================
 noel =            1  npt =            1  number =           20
 ==============================================================
 Stress Tensor : 
Row 1: [100.04,   0.00,   0.00]
Row 2: [  0.00, 100.00,  -0.00]
Row 3: [  0.00,  -0.00, 100.00]
 Fabric Tensor : 
Row 1: [  0.37,  -0.00,   0.00]
Row 2: [ -0.00,  -0.18,   0.00]
Row 3: [  0.00,   0.00,  -0.18]
Hardening =  1.000000E-02
mean stress = 100.01   deviatoric stress =   0.04
ratio stress =   0.00
fabric norm =   0.45   anisotropy =   0.45
volumetric strain =   0.00   shear strain =   0.00
Dkp =    0.435943E+06   dilatancy =      0.078
 ==============================================================
 noel =            1  npt =            1  number =           21
 ==============================================================
 Stress Tensor : 
Row 1: [100.06,   0.00,  -0.00]
Row 2: [  0.00, 100.00,  -0.00]
Row 3: [ -0.00,  -0.00, 100.00]
 Fabric Tensor : 
Row 1: [  0.37,  -0.00,   0.00]
Row 2: [ -0.00,  -0.18,   0.00]
Row 3: [  0.00,   0.00,  -0.18]
Hardening =  1.000000E-02
mean stress = 100.02   deviatoric stress =   0.06
ratio stress =   0.00
fabric norm =   0.45   anisotropy =   0.45
volumetric strain =   0.00   shear strain =   0.00
Dkp =    0.288681E+06   dilatancy =      0.078
 ==============================================================
 noel =            1  npt =            1  number =           22
 ==============================================================
 Stress Tensor : 
Row 1: [100.06,  -0.00,   0.00]
Row 2: [ -0.00, 100.00,  -0.00]
Row 3: [  0.00,  -0.00, 100.00]
 Fabric Tensor : 
Row 1: [  0.37,   0.00,   0.00]
Row 2: [  0.00,  -0.18,   0.00]
Row 3: [  0.00,   0.00,  -0.18]
Hardening =  1.000000E-02
mean stress = 100.02   deviatoric stress =   0.06
ratio stress =   0.00
fabric norm =   0.45   anisotropy =   0.45
volumetric strain =   0.00   shear strain =   0.00
Dkp =    0.288681E+06   dilatancy =      0.078
 ==============================================================
 noel =            1  npt =            1  number =           23
 ==============================================================
 Stress Tensor : 
Row 1: [100.09,  -0.00,   0.00]
Row 2: [ -0.00, 100.00,  -0.00]
Row 3: [  0.00,  -0.00, 100.00]
 Fabric Tensor : 
Row 1: [  0.37,   0.00,  -0.00]
Row 2: [  0.00,  -0.18,   0.00]
Row 3: [ -0.00,   0.00,  -0.18]
Hardening =  1.000000E-02
mean stress = 100.03   deviatoric stress =   0.09
ratio stress =   0.00
fabric norm =   0.45   anisotropy =   0.45
volumetric strain =   0.00   shear strain =   0.00
Dkp =    0.191580E+06   dilatancy =      0.078
 ==============================================================
 noel =            1  npt =            1  number =           24
 ==============================================================
 Stress Tensor : 
Row 1: [100.09,   0.00,  -0.00]
Row 2: [  0.00, 100.00,  -0.00]
Row 3: [ -0.00,  -0.00, 100.00]
 Fabric Tensor : 
Row 1: [  0.37,  -0.00,   0.00]
Row 2: [ -0.00,  -0.18,   0.00]
Row 3: [  0.00,   0.00,  -0.18]
Hardening =  1.000000E-02
mean stress = 100.03   deviatoric stress =   0.09
ratio stress =   0.00
fabric norm =   0.45   anisotropy =   0.45
volumetric strain =   0.00   shear strain =   0.00
Dkp =    0.191580E+06   dilatancy =      0.078
 ==============================================================
 noel =            1  npt =            1  number =           25
 ==============================================================
 Stress Tensor : 
Row 1: [100.13,   0.00,  -0.00]
Row 2: [  0.00, 100.00,  -0.00]
Row 3: [ -0.00,  -0.00, 100.00]
 Fabric Tensor : 
Row 1: [  0.37,  -0.00,   0.00]
Row 2: [ -0.00,  -0.18,   0.00]
Row 3: [  0.00,   0.00,  -0.18]
Hardening =  1.000000E-02
mean stress = 100.04   deviatoric stress =   0.13
ratio stress =   0.00
fabric norm =   0.45   anisotropy =   0.45
volumetric strain =   0.00   shear strain =   0.00
Dkp =    0.127316E+06   dilatancy =      0.078
 ==============================================================
 noel =            1  npt =            1  number =           26
 ==============================================================
 Stress Tensor : 
Row 1: [100.13,   0.00,  -0.00]
Row 2: [  0.00, 100.00,  -0.00]
Row 3: [ -0.00,  -0.00, 100.00]
 Fabric Tensor : 
Row 1: [  0.37,  -0.00,   0.00]
Row 2: [ -0.00,  -0.18,   0.00]
Row 3: [  0.00,   0.00,  -0.18]
Hardening =  1.000000E-02
mean stress = 100.04   deviatoric stress =   0.13
ratio stress =   0.00
fabric norm =   0.45   anisotropy =   0.45
volumetric strain =   0.00   shear strain =   0.00
Dkp =    0.127316E+06   dilatancy =      0.078
 ==============================================================
 noel =            1  npt =            1  number =           27
 ==============================================================
 Stress Tensor : 
Row 1: [100.20,   0.00,  -0.00]
Row 2: [  0.00, 100.00,  -0.00]
Row 3: [ -0.00,  -0.00, 100.00]
 Fabric Tensor : 
Row 1: [  0.37,  -0.00,   0.00]
Row 2: [ -0.00,  -0.18,   0.00]
Row 3: [  0.00,   0.00,  -0.18]
Hardening =  1.000000E-02
mean stress = 100.07   deviatoric stress =   0.20
ratio stress =   0.00
fabric norm =   0.45   anisotropy =   0.45
volumetric strain =   0.00   shear strain =   0.00
Dkp =    0.846811E+05   dilatancy =      0.078
 ==============================================================
 noel =            1  npt =            1  number =           28
 ==============================================================
 Stress Tensor : 
Row 1: [100.20,  -0.00,   0.00]
Row 2: [ -0.00, 100.00,  -0.00]
Row 3: [  0.00,  -0.00, 100.00]
 Fabric Tensor : 
Row 1: [  0.37,   0.00,   0.00]
Row 2: [  0.00,  -0.18,   0.00]
Row 3: [  0.00,   0.00,  -0.18]
Hardening =  1.000000E-02
mean stress = 100.07   deviatoric stress =   0.20
ratio stress =   0.00
fabric norm =   0.45   anisotropy =   0.45
volumetric strain =   0.00   shear strain =   0.00
Dkp =    0.846811E+05   dilatancy =      0.078
 ==============================================================
 noel =            1  npt =            1  number =           29
 ==============================================================
 Stress Tensor : 
Row 1: [100.30,  -0.00,   0.00]
Row 2: [ -0.00, 100.00,   0.00]
Row 3: [  0.00,   0.00, 100.00]
 Fabric Tensor : 
Row 1: [  0.37,   0.00,  -0.00]
Row 2: [  0.00,  -0.18,   0.00]
Row 3: [ -0.00,   0.00,  -0.18]
Hardening =  1.000000E-02
mean stress = 100.10   deviatoric stress =   0.30
ratio stress =   0.00
fabric norm =   0.45   anisotropy =   0.45
volumetric strain =   0.00   shear strain =   0.00
Dkp =    0.563491E+05   dilatancy =      0.078
 ==============================================================
 noel =            1  npt =            1  number =           30
 ==============================================================
 Stress Tensor : 
Row 1: [100.30,   0.00,   0.00]
Row 2: [  0.00, 100.00,  -0.00]
Row 3: [  0.00,  -0.00, 100.00]
 Fabric Tensor : 
Row 1: [  0.37,  -0.00,   0.00]
Row 2: [ -0.00,  -0.18,   0.00]
Row 3: [  0.00,   0.00,  -0.18]
Hardening =  1.000000E-02
mean stress = 100.10   deviatoric stress =   0.30
ratio stress =   0.00
fabric norm =   0.45   anisotropy =   0.45
volumetric strain =   0.00   shear strain =   0.00
Dkp =    0.563491E+05   dilatancy =      0.078
 ==============================================================
 noel =            1  npt =            1  number =           31
 ==============================================================
 Stress Tensor : 
Row 1: [100.45,   0.00,   0.00]
Row 2: [  0.00, 100.00,  -0.00]
Row 3: [  0.00,  -0.00, 100.00]
 Fabric Tensor : 
Row 1: [  0.37,  -0.00,   0.00]
Row 2: [ -0.00,  -0.18,   0.00]
Row 3: [  0.00,   0.00,  -0.18]
Hardening =  1.000000E-02
mean stress = 100.15   deviatoric stress =   0.45
ratio stress =   0.00
fabric norm =   0.45   anisotropy =   0.45
volumetric strain =   0.00   shear strain =   0.00
Dkp =    0.375016E+05   dilatancy =      0.078
 ==============================================================
 noel =            1  npt =            1  number =           32
 ==============================================================
 Stress Tensor : 
Row 1: [100.45,   0.00,   0.00]
Row 2: [  0.00, 100.00,  -0.00]
Row 3: [  0.00,  -0.00, 100.00]
 Fabric Tensor : 
Row 1: [  0.37,  -0.00,   0.00]
Row 2: [ -0.00,  -0.18,   0.00]
Row 3: [  0.00,   0.00,  -0.18]
Hardening =  1.000000E-02
mean stress = 100.15   deviatoric stress =   0.45
ratio stress =   0.00
fabric norm =   0.45   anisotropy =   0.45
volumetric strain =   0.00   shear strain =   0.00
Dkp =    0.375016E+05   dilatancy =      0.078
 ==============================================================
 noel =            1  npt =            1  number =           33
 ==============================================================
 Stress Tensor : 
Row 1: [100.67,   0.00,   0.00]
Row 2: [  0.00, 100.00,  -0.00]
Row 3: [  0.00,  -0.00, 100.00]
 Fabric Tensor : 
Row 1: [  0.37,  -0.00,   0.00]
Row 2: [ -0.00,  -0.18,   0.00]
Row 3: [  0.00,   0.00,  -0.18]
Hardening =  1.000000E-02
mean stress = 100.22   deviatoric stress =   0.67
ratio stress =   0.01
fabric norm =   0.45   anisotropy =   0.45
volumetric strain =   0.00   shear strain =   0.00
Dkp =    0.249546E+05   dilatancy =      0.078
 ==============================================================
 noel =            1  npt =            1  number =           34
 ==============================================================
 Stress Tensor : 
Row 1: [100.67,  -0.00,  -0.00]
Row 2: [ -0.00, 100.00,  -0.00]
Row 3: [ -0.00,  -0.00, 100.00]
 Fabric Tensor : 
Row 1: [  0.37,   0.00,   0.00]
Row 2: [  0.00,  -0.18,   0.00]
Row 3: [  0.00,   0.00,  -0.18]
Hardening =  1.000000E-02
mean stress = 100.22   deviatoric stress =   0.67
ratio stress =   0.01
fabric norm =   0.45   anisotropy =   0.45
volumetric strain =   0.00   shear strain =   0.00
Dkp =    0.249546E+05   dilatancy =      0.078
 ==============================================================
 noel =            1  npt =            1  number =           35
 ==============================================================
 Stress Tensor : 
Row 1: [101.01,  -0.00,  -0.00]
Row 2: [ -0.00, 100.00,   0.00]
Row 3: [ -0.00,   0.00, 100.00]
 Fabric Tensor : 
Row 1: [  0.37,   0.00,   0.00]
Row 2: [  0.00,  -0.18,   0.00]
Row 3: [  0.00,   0.00,  -0.18]
Hardening =  1.016677E-02
mean stress = 100.34   deviatoric stress =   1.01
ratio stress =   0.01
fabric norm =   0.45   anisotropy =   0.45
volumetric strain =   0.00   shear strain =   0.00
Dkp =    0.166117E+05   dilatancy =      0.078
 ==============================================================
 noel =            1  npt =            1  number =           36
 ==============================================================
 Stress Tensor : 
Row 1: [101.01,  -0.00,   0.00]
Row 2: [ -0.00, 100.00,  -0.00]
Row 3: [  0.00,  -0.00, 100.00]
 Fabric Tensor : 
Row 1: [  0.37,   0.00,   0.00]
Row 2: [  0.00,  -0.18,  -0.00]
Row 3: [  0.00,  -0.00,  -0.18]
Hardening =  1.017002E-02
mean stress = 100.34   deviatoric stress =   1.01
ratio stress =   0.01
fabric norm =   0.45   anisotropy =   0.45
volumetric strain =   0.00   shear strain =   0.00
Dkp =    0.166087E+05   dilatancy =      0.078
 ==============================================================
 noel =            1  npt =            1  number =           37
 ==============================================================
 Stress Tensor : 
Row 1: [101.50,   0.00,   0.00]
Row 2: [  0.00, 100.01,  -0.00]
Row 3: [  0.00,  -0.00, 100.01]
 Fabric Tensor : 
Row 1: [  0.37,  -0.00,  -0.00]
Row 2: [ -0.00,  -0.18,  -0.00]
Row 3: [ -0.00,  -0.00,  -0.18]
Hardening =  1.494161E-02
mean stress = 100.51   deviatoric stress =   1.49
ratio stress =   0.01
fabric norm =   0.45   anisotropy =   0.45
volumetric strain =   0.00   shear strain =   0.00
Dkp =    0.112580E+05   dilatancy =      0.078
 ==============================================================
 noel =            1  npt =            1  number =           38
 ==============================================================
 Stress Tensor : 
Row 1: [101.50,   0.00,   0.00]
Row 2: [  0.00, 100.00,  -0.00]
Row 3: [  0.00,  -0.00, 100.00]
 Fabric Tensor : 
Row 1: [  0.37,  -0.00,   0.00]
Row 2: [ -0.00,  -0.18,  -0.00]
Row 3: [  0.00,  -0.00,  -0.18]
Hardening =  1.497451E-02
mean stress = 100.50   deviatoric stress =   1.49
ratio stress =   0.01
fabric norm =   0.45   anisotropy =   0.45
volumetric strain =   0.00   shear strain =   0.00
Dkp =    0.112332E+05   dilatancy =      0.078
 ==============================================================
 noel =            1  npt =            1  number =           39
 ==============================================================
 Stress Tensor : 
Row 1: [102.21,   0.00,  -0.00]
Row 2: [  0.00, 100.02,  -0.00]
Row 3: [ -0.00,  -0.00, 100.02]
 Fabric Tensor : 
Row 1: [  0.37,  -0.00,   0.00]
Row 2: [ -0.00,  -0.18,  -0.00]
Row 3: [  0.00,  -0.00,  -0.18]
Hardening =  2.196303E-02
mean stress = 100.75   deviatoric stress =   2.19
ratio stress =   0.02
fabric norm =   0.45   anisotropy =   0.45
volumetric strain =   0.00   shear strain =   0.00
Dkp =    0.761362E+04   dilatancy =      0.078
 ==============================================================
 noel =            1  npt =            1  number =           40
 ==============================================================
 Stress Tensor : 
Row 1: [102.21,   0.00,   0.00]
Row 2: [  0.00, 100.01,  -0.00]
Row 3: [  0.00,  -0.00, 100.01]
 Fabric Tensor : 
Row 1: [  0.37,  -0.00,   0.00]
Row 2: [ -0.00,  -0.18,  -0.00]
Row 3: [  0.00,  -0.00,  -0.18]
Hardening =  2.202707E-02
mean stress = 100.74   deviatoric stress =   2.20
ratio stress =   0.02
fabric norm =   0.45   anisotropy =   0.45
volumetric strain =   0.00   shear strain =   0.00
Dkp =    0.759144E+04   dilatancy =      0.078
 ==============================================================
 noel =            1  npt =            1  number =           41
 ==============================================================
 Stress Tensor : 
Row 1: [103.25,   0.00,   0.00]
Row 2: [  0.00, 100.03,  -0.00]
Row 3: [  0.00,  -0.00, 100.03]
 Fabric Tensor : 
Row 1: [  0.37,  -0.00,   0.00]
Row 2: [ -0.00,  -0.18,  -0.00]
Row 3: [  0.00,  -0.00,  -0.18]
Hardening =  3.215000E-02
mean stress = 101.10   deviatoric stress =   3.22
ratio stress =   0.03
fabric norm =   0.45   anisotropy =   0.45
volumetric strain =   0.00   shear strain =   0.00
Dkp =    0.515639E+04   dilatancy =      0.078
 ==============================================================
 noel =            1  npt =            1  number =           42
 ==============================================================
 Stress Tensor : 
Row 1: [103.25,   0.00,   0.00]
Row 2: [  0.00, 100.02,   0.00]
Row 3: [  0.00,   0.00, 100.02]
 Fabric Tensor : 
Row 1: [  0.37,  -0.00,   0.00]
Row 2: [ -0.00,  -0.18,  -0.00]
Row 3: [  0.00,  -0.00,  -0.18]
Hardening =  3.225046E-02
mean stress = 101.09   deviatoric stress =   3.23
ratio stress =   0.03
fabric norm =   0.45   anisotropy =   0.45
volumetric strain =   0.00   shear strain =   0.00
Dkp =    0.514029E+04   dilatancy =      0.078
 ==============================================================
 noel =            1  npt =            1  number =           43
 ==============================================================
 Stress Tensor : 
Row 1: [104.75,   0.00,   0.00]
Row 2: [  0.00, 100.05,   0.00]
Row 3: [  0.00,   0.00, 100.05]
 Fabric Tensor : 
Row 1: [  0.37,  -0.00,   0.00]
Row 2: [ -0.00,  -0.18,   0.00]
Row 3: [  0.00,   0.00,  -0.18]
Hardening =  4.667528E-02
mean stress = 101.62   deviatoric stress =   4.70
ratio stress =   0.05
fabric norm =   0.45   anisotropy =   0.45
volumetric strain =   0.01   shear strain =   0.01
Dkp =    0.350774E+04   dilatancy =      0.078
 ==============================================================
 noel =            1  npt =            1  number =           44
 ==============================================================
 Stress Tensor : 
Row 1: [104.74,   0.00,  -0.00]
Row 2: [  0.00, 100.03,   0.00]
Row 3: [ -0.00,   0.00, 100.03]
 Fabric Tensor : 
Row 1: [  0.37,   0.00,   0.00]
Row 2: [  0.00,  -0.18,  -0.00]
Row 3: [  0.00,  -0.00,  -0.18]
Hardening =  4.683937E-02
mean stress = 101.60   deviatoric stress =   4.72
ratio stress =   0.05
fabric norm =   0.45   anisotropy =   0.45
volumetric strain =   0.01   shear strain =   0.01
Dkp =    0.349542E+04   dilatancy =      0.078
 ==============================================================
 noel =            1  npt =            1  number =           45
 ==============================================================
 Stress Tensor : 
Row 1: [106.89,   0.00,  -0.00]
Row 2: [  0.00, 100.09,   0.00]
Row 3: [ -0.00,   0.00, 100.09]
 Fabric Tensor : 
Row 1: [  0.37,   0.00,   0.00]
Row 2: [  0.00,  -0.18,   0.00]
Row 3: [  0.00,   0.00,  -0.18]
Hardening =  6.698720E-02
mean stress = 102.36   deviatoric stress =   6.79
ratio stress =   0.07
fabric norm =   0.45   anisotropy =   0.45
volumetric strain =   0.01   shear strain =   0.01
Dkp =    0.240124E+04   dilatancy =      0.077
 ==============================================================
 noel =            1  npt =            1  number =           46
 ==============================================================
 Stress Tensor : 
Row 1: [106.87,   0.00,   0.00]
Row 2: [  0.00, 100.05,   0.00]
Row 3: [  0.00,   0.00, 100.05]
 Fabric Tensor : 
Row 1: [  0.37,   0.00,   0.00]
Row 2: [  0.00,  -0.18,   0.00]
Row 3: [  0.00,   0.00,  -0.18]
Hardening =  6.727063E-02
mean stress = 102.32   deviatoric stress =   6.82
ratio stress =   0.07
fabric norm =   0.45   anisotropy =   0.45
volumetric strain =   0.01   shear strain =   0.01
Dkp =    0.239112E+04   dilatancy =      0.077
 ==============================================================
 noel =            1  npt =            1  number =           47
 ==============================================================
 Stress Tensor : 
Row 1: [109.68,   0.00,   0.00]
Row 2: [  0.00, 100.16,   0.00]
Row 3: [  0.00,   0.00, 100.16]
 Fabric Tensor : 
Row 1: [  0.37,   0.00,   0.00]
Row 2: [  0.00,  -0.18,   0.00]
Row 3: [  0.00,   0.00,  -0.18]
Hardening =  9.296694E-02
mean stress = 103.33   deviatoric stress =   9.52
ratio stress =   0.09
fabric norm =   0.45   anisotropy =   0.45
volumetric strain =   0.01   shear strain =   0.02
Dkp =    0.169079E+04   dilatancy =      0.077
 ==============================================================
 noel =            1  npt =            1  number =           48
 ==============================================================
 Stress Tensor : 
Row 1: [109.61,  -0.00,  -0.00]
Row 2: [ -0.00, 100.09,   0.00]
Row 3: [ -0.00,   0.00, 100.09]
 Fabric Tensor : 
Row 1: [  0.37,   0.00,   0.00]
Row 2: [  0.00,  -0.18,   0.00]
Row 3: [  0.00,   0.00,  -0.18]
Hardening =  9.306885E-02
mean stress = 103.26   deviatoric stress =   9.52
ratio stress =   0.09
fabric norm =   0.45   anisotropy =   0.45
volumetric strain =   0.01   shear strain =   0.02
Dkp =    0.168948E+04   dilatancy =      0.077
 ==============================================================
 noel =            1  npt =            1  number =           49
 ==============================================================
 Stress Tensor : 
Row 1: [108.40,   0.00,   0.00]
Row 2: [  0.00, 100.10,   0.00]
Row 3: [  0.00,   0.00, 100.10]
 Fabric Tensor : 
Row 1: [  0.37,   0.00,   0.00]
Row 2: [  0.00,  -0.18,   0.00]
Row 3: [  0.00,   0.00,  -0.18]
Hardening =  8.143983E-02
mean stress = 102.86   deviatoric stress =   8.30
ratio stress =   0.08
fabric norm =   0.45   anisotropy =   0.45
volumetric strain =   0.01   shear strain =   0.01
Dkp =    0.195038E+04   dilatancy =      0.077
 ==============================================================
 noel =            1  npt =            1  number =           50
 ==============================================================
 Stress Tensor : 
Row 1: [108.38,   0.00,   0.00]
Row 2: [  0.00, 100.05,   0.00]
Row 3: [  0.00,   0.00, 100.05]
 Fabric Tensor : 
Row 1: [  0.37,   0.00,   0.00]
Row 2: [  0.00,  -0.18,   0.00]
Row 3: [  0.00,   0.00,  -0.18]
Hardening =  8.173308E-02
mean stress = 102.83   deviatoric stress =   8.33
ratio stress =   0.08
fabric norm =   0.45   anisotropy =   0.45
volumetric strain =   0.01   shear strain =   0.01
Dkp =    0.194339E+04   dilatancy =      0.077
 ==============================================================
 noel =            1  npt =            1  number =           51
 ==============================================================
 Stress Tensor : 
Row 1: [108.37,   0.00,   0.00]
Row 2: [  0.00, 100.03,   0.00]
Row 3: [  0.00,   0.00, 100.03]
 Fabric Tensor : 
Row 1: [  0.37,   0.00,   0.00]
Row 2: [  0.00,  -0.18,   0.00]
Row 3: [  0.00,   0.00,  -0.18]
Hardening =  8.188761E-02
mean stress = 102.81   deviatoric stress =   8.34
ratio stress =   0.08
fabric norm =   0.45   anisotropy =   0.45
volumetric strain =   0.01   shear strain =   0.01
Dkp =    0.193973E+04   dilatancy =      0.077
 ==============================================================
 noel =            1  npt =            1  number =           52
 ==============================================================
 Stress Tensor : 
Row 1: [110.53,   0.00,   0.00]
Row 2: [  0.00, 100.04,   0.00]
Row 3: [  0.00,   0.00, 100.04]
 Fabric Tensor : 
Row 1: [  0.37,   0.00,   0.00]
Row 2: [  0.00,  -0.18,   0.00]
Row 3: [  0.00,   0.00,  -0.18]
Hardening =  1.022239E-01
mean stress = 103.54   deviatoric stress =  10.49
ratio stress =   0.10
fabric norm =   0.45   anisotropy =   0.45
volumetric strain =   0.01   shear strain =   0.02
Dkp =    0.152619E+04   dilatancy =      0.076
 ==============================================================
 noel =            1  npt =            1  number =           53
 ==============================================================
 Stress Tensor : 
Row 1: [110.52,   0.00,   0.00]
Row 2: [  0.00, 100.02,  -0.00]
Row 3: [  0.00,  -0.00, 100.02]
 Fabric Tensor : 
Row 1: [  0.37,   0.00,   0.00]
Row 2: [  0.00,  -0.18,   0.00]
Row 3: [  0.00,   0.00,  -0.18]
Hardening =  1.023362E-01
mean stress = 103.52   deviatoric stress =  10.50
ratio stress =   0.10
fabric norm =   0.45   anisotropy =   0.45
volumetric strain =   0.01   shear strain =   0.02
Dkp =    0.152452E+04   dilatancy =      0.076
 ==============================================================
 noel =            1  npt =            1  number =           54
 ==============================================================
 Stress Tensor : 
Row 1: [113.58,   0.00,   0.00]
Row 2: [  0.00, 100.09,  -0.00]
Row 3: [  0.00,  -0.00, 100.09]
 Fabric Tensor : 
Row 1: [  0.37,   0.00,   0.00]
Row 2: [  0.00,  -0.18,   0.00]
Row 3: [  0.00,   0.00,  -0.18]
Hardening =  1.301088E-01
mean stress = 104.59   deviatoric stress =  13.49
ratio stress =   0.13
fabric norm =   0.45   anisotropy =   0.45
volumetric strain =   0.01   shear strain =   0.03
Dkp =    0.116923E+04   dilatancy =      0.076
 ==============================================================
 noel =            1  npt =            1  number =           55
 ==============================================================
 Stress Tensor : 
Row 1: [113.56,   0.00,   0.00]
Row 2: [  0.00, 100.05,  -0.00]
Row 3: [  0.00,  -0.00, 100.05]
 Fabric Tensor : 
Row 1: [  0.37,   0.00,   0.00]
Row 2: [  0.00,  -0.18,   0.00]
Row 3: [  0.00,   0.00,  -0.18]
Hardening =  1.303567E-01
mean stress = 104.55   deviatoric stress =  13.51
ratio stress =   0.13
fabric norm =   0.45   anisotropy =   0.45
volumetric strain =   0.01   shear strain =   0.03
Dkp =    0.116703E+04   dilatancy =      0.076
 ==============================================================
 noel =            1  npt =            1  number =           56
 ==============================================================
 Stress Tensor : 
Row 1: [117.83,   0.00,   0.00]
Row 2: [  0.00, 100.23,  -0.00]
Row 3: [  0.00,  -0.00, 100.23]
 Fabric Tensor : 
Row 1: [  0.37,   0.00,   0.00]
Row 2: [  0.00,  -0.18,   0.00]
Row 3: [  0.00,   0.00,  -0.18]
Hardening =  1.673783E-01
mean stress = 106.10   deviatoric stress =  17.60
ratio stress =   0.17
fabric norm =   0.45   anisotropy =   0.45
volumetric strain =   0.02   shear strain =   0.04
Dkp =    0.877748E+03   dilatancy =      0.074
 ==============================================================
 noel =            1  npt =            1  number =           57
 ==============================================================
 Stress Tensor : 
Row 1: [117.77,   0.00,   0.00]
Row 2: [  0.00, 100.12,  -0.00]
Row 3: [  0.00,  -0.00, 100.12]
 Fabric Tensor : 
Row 1: [  0.37,   0.00,   0.00]
Row 2: [  0.00,  -0.18,   0.00]
Row 3: [  0.00,   0.00,  -0.18]
Hardening =  1.679483E-01
mean stress = 106.00   deviatoric stress =  17.64
ratio stress =   0.17
fabric norm =   0.45   anisotropy =   0.45
volumetric strain =   0.02   shear strain =   0.04
Dkp =    0.874856E+03   dilatancy =      0.074
 ==============================================================
 noel =            1  npt =            1  number =           58
 ==============================================================
 Stress Tensor : 
Row 1: [123.11,   0.00,   0.00]
Row 2: [  0.00, 100.42,  -0.00]
Row 3: [  0.00,  -0.00, 100.42]
 Fabric Tensor : 
Row 1: [  0.37,   0.00,   0.00]
Row 2: [  0.00,  -0.18,  -0.00]
Row 3: [  0.00,  -0.00,  -0.18]
Hardening =  2.119888E-01
mean stress = 107.99   deviatoric stress =  22.69
ratio stress =   0.21
fabric norm =   0.45   anisotropy =   0.45
volumetric strain =   0.03   shear strain =   0.05
Dkp =    0.663838E+03   dilatancy =      0.073
 ==============================================================
 noel =            1  npt =            1  number =           59
 ==============================================================
 Stress Tensor : 
Row 1: [122.91,   0.00,  -0.00]
Row 2: [  0.00, 100.23,  -0.00]
Row 3: [ -0.00,  -0.00, 100.23]
 Fabric Tensor : 
Row 1: [  0.37,   0.00,   0.00]
Row 2: [  0.00,  -0.18,  -0.00]
Row 3: [  0.00,  -0.00,  -0.18]
Hardening =  2.122713E-01
mean stress = 107.79   deviatoric stress =  22.67
ratio stress =   0.21
fabric norm =   0.45   anisotropy =   0.45
volumetric strain =   0.03   shear strain =   0.05
Dkp =    0.663513E+03   dilatancy =      0.073
 ==============================================================
 noel =            1  npt =            1  number =           60
 ==============================================================
 Stress Tensor : 
Row 1: [120.76,   0.00,   0.00]
Row 2: [  0.00, 100.27,  -0.00]
Row 3: [  0.00,  -0.00, 100.27]
 Fabric Tensor : 
Row 1: [  0.37,   0.00,   0.00]
Row 2: [  0.00,  -0.18,   0.00]
Row 3: [  0.00,   0.00,  -0.18]
Hardening =  1.930779E-01
mean stress = 107.10   deviatoric stress =  20.49
ratio stress =   0.19
fabric norm =   0.45   anisotropy =   0.45
volumetric strain =   0.02   shear strain =   0.04
Dkp =    0.742732E+03   dilatancy =      0.073
 ==============================================================
 noel =            1  npt =            1  number =           61
 ==============================================================
 Stress Tensor : 
Row 1: [120.68,   0.00,   0.00]
Row 2: [  0.00, 100.14,  -0.00]
Row 3: [  0.00,  -0.00, 100.14]
 Fabric Tensor : 
Row 1: [  0.37,   0.00,   0.00]
Row 2: [  0.00,  -0.18,   0.00]
Row 3: [  0.00,   0.00,  -0.18]
Hardening =  1.937005E-01
mean stress = 106.99   deviatoric stress =  20.54
ratio stress =   0.19
fabric norm =   0.45   anisotropy =   0.45
volumetric strain =   0.02   shear strain =   0.04
Dkp =    0.740448E+03   dilatancy =      0.073
 ==============================================================
 noel =            1  npt =            1  number =           62
 ==============================================================
 Stress Tensor : 
Row 1: [120.63,   0.00,   0.00]
Row 2: [  0.00, 100.07,   0.00]
Row 3: [  0.00,   0.00, 100.07]
 Fabric Tensor : 
Row 1: [  0.37,   0.00,   0.00]
Row 2: [  0.00,  -0.18,   0.00]
Row 3: [  0.00,   0.00,  -0.18]
Hardening =  1.940288E-01
mean stress = 106.93   deviatoric stress =  20.56
ratio stress =   0.19
fabric norm =   0.45   anisotropy =   0.45
volumetric strain =   0.02   shear strain =   0.04
Dkp =    0.739250E+03   dilatancy =      0.073
 ==============================================================
 noel =            1  npt =            1  number =           63
 ==============================================================
 Stress Tensor : 
Row 1: [124.71,  -0.00,  -0.00]
Row 2: [ -0.00, 100.11,   0.00]
Row 3: [ -0.00,   0.00, 100.11]
 Fabric Tensor : 
Row 1: [  0.37,   0.00,   0.00]
Row 2: [  0.00,  -0.18,   0.00]
Row 3: [  0.00,   0.00,  -0.18]
Hardening =  2.292189E-01
mean stress = 108.31   deviatoric stress =  24.60
ratio stress =   0.23
fabric norm =   0.45   anisotropy =   0.45
volumetric strain =   0.03   shear strain =   0.06
Dkp =    0.604955E+03   dilatancy =      0.072
 ==============================================================
 noel =            1  npt =            1  number =           64
 ==============================================================
 Stress Tensor : 
Row 1: [124.68,   0.00,  -0.00]
Row 2: [  0.00, 100.06,   0.00]
Row 3: [ -0.00,   0.00, 100.06]
 Fabric Tensor : 
Row 1: [  0.37,   0.00,   0.00]
Row 2: [  0.00,  -0.18,   0.00]
Row 3: [  0.00,   0.00,  -0.18]
Hardening =  2.294620E-01
mean stress = 108.27   deviatoric stress =  24.62
ratio stress =   0.23
fabric norm =   0.45   anisotropy =   0.45
volumetric strain =   0.03   shear strain =   0.06
Dkp =    0.604357E+03   dilatancy =      0.072
 ==============================================================
 noel =            1  npt =            1  number =           65
 ==============================================================
 Stress Tensor : 
Row 1: [130.29,  -0.00,  -0.00]
Row 2: [ -0.00, 100.23,   0.00]
Row 3: [ -0.00,   0.00, 100.23]
 Fabric Tensor : 
Row 1: [  0.37,   0.00,   0.00]
Row 2: [  0.00,  -0.18,   0.00]
Row 3: [  0.00,   0.00,  -0.18]
Hardening =  2.752076E-01
mean stress = 110.25   deviatoric stress =  30.07
ratio stress =   0.27
fabric norm =   0.45   anisotropy =   0.45
volumetric strain =   0.03   shear strain =   0.07
Dkp =    0.481265E+03   dilatancy =      0.070
 ==============================================================
 noel =            1  npt =            1  number =           66
 ==============================================================
 Stress Tensor : 
Row 1: [130.21,  -0.00,  -0.00]
Row 2: [ -0.00, 100.12,   0.00]
Row 3: [ -0.00,   0.00, 100.12]
 Fabric Tensor : 
Row 1: [  0.37,   0.00,   0.00]
Row 2: [  0.00,  -0.18,   0.00]
Row 3: [  0.00,   0.00,  -0.18]
Hardening =  2.756599E-01
mean stress = 110.15   deviatoric stress =  30.09
ratio stress =   0.27
fabric norm =   0.45   anisotropy =   0.45
volumetric strain =   0.03   shear strain =   0.07
Dkp =    0.480557E+03   dilatancy =      0.070
 ==============================================================
 noel =            1  npt =            1  number =           67
 ==============================================================
 Stress Tensor : 
Row 1: [137.96,  -0.00,  -0.00]
Row 2: [ -0.00, 100.52,   0.00]
Row 3: [ -0.00,   0.00, 100.52]
 Fabric Tensor : 
Row 1: [  0.37,   0.00,   0.00]
Row 2: [  0.00,  -0.18,   0.00]
Row 3: [  0.00,   0.00,  -0.18]
Hardening =  3.344094E-01
mean stress = 113.00   deviatoric stress =  37.45
ratio stress =   0.33
fabric norm =   0.45   anisotropy =   0.45
volumetric strain =   0.04   shear strain =   0.10
Dkp =    0.372139E+03   dilatancy =      0.067
 ==============================================================
 noel =            1  npt =            1  number =           68
 ==============================================================
 Stress Tensor : 
Row 1: [137.75,   0.00,  -0.00]
Row 2: [  0.00, 100.27,   0.00]
Row 3: [ -0.00,   0.00, 100.27]
 Fabric Tensor : 
Row 1: [  0.37,   0.00,   0.00]
Row 2: [  0.00,  -0.18,   0.00]
Row 3: [  0.00,   0.00,  -0.18]
Hardening =  3.353439E-01
mean stress = 112.77   deviatoric stress =  37.48
ratio stress =   0.33
fabric norm =   0.45   anisotropy =   0.45
volumetric strain =   0.04   shear strain =   0.10
Dkp =    0.371272E+03   dilatancy =      0.067
 ==============================================================
 noel =            1  npt =            1  number =           69
 ==============================================================
 Stress Tensor : 
Row 1: [137.64,   0.00,  -0.00]
Row 2: [  0.00, 100.15,   0.00]
Row 3: [ -0.00,   0.00, 100.15]
 Fabric Tensor : 
Row 1: [  0.37,   0.00,   0.00]
Row 2: [  0.00,  -0.18,   0.00]
Row 3: [  0.00,   0.00,  -0.18]
Hardening =  3.358404E-01
mean stress = 112.64   deviatoric stress =  37.49
ratio stress =   0.33
fabric norm =   0.45   anisotropy =   0.45
volumetric strain =   0.04   shear strain =   0.10
Dkp =    0.370814E+03   dilatancy =      0.067
 ==============================================================
 noel =            1  npt =            1  number =           70
 ==============================================================
 Stress Tensor : 
Row 1: [147.03,   0.00,  -0.00]
Row 2: [  0.00, 100.60,   0.00]
Row 3: [ -0.00,   0.00, 100.60]
 Fabric Tensor : 
Row 1: [  0.37,   0.00,   0.00]
Row 2: [  0.00,  -0.18,   0.00]
Row 3: [  0.00,   0.00,  -0.18]
Hardening =  4.035733E-01
mean stress = 116.08   deviatoric stress =  46.42
ratio stress =   0.40
fabric norm =   0.45   anisotropy =   0.45
volumetric strain =   0.06   shear strain =   0.15
Dkp =    0.286070E+03   dilatancy =      0.063
 ==============================================================
 noel =            1  npt =            1  number =           71
 ==============================================================
 Stress Tensor : 
Row 1: [146.72,   0.00,   0.00]
Row 2: [  0.00, 100.36,   0.00]
Row 3: [  0.00,   0.00, 100.36]
 Fabric Tensor : 
Row 1: [  0.37,   0.00,   0.00]
Row 2: [  0.00,  -0.18,   0.00]
Row 3: [  0.00,   0.00,  -0.18]
Hardening =  4.039441E-01
mean stress = 115.82   deviatoric stress =  46.36
ratio stress =   0.40
fabric norm =   0.45   anisotropy =   0.45
volumetric strain =   0.05   shear strain =   0.15
Dkp =    0.286104E+03   dilatancy =      0.063
 ==============================================================
 noel =            1  npt =            1  number =           72
 ==============================================================
 Stress Tensor : 
Row 1: [144.12,   0.00,  -0.00]
Row 2: [  0.00, 100.41,   0.00]
Row 3: [ -0.00,   0.00, 100.41]
 Fabric Tensor : 
Row 1: [  0.37,   0.00,   0.00]
Row 2: [  0.00,  -0.18,   0.00]
Row 3: [  0.00,   0.00,  -0.18]
Hardening =  3.835769E-01
mean stress = 114.98   deviatoric stress =  43.71
ratio stress =   0.38
fabric norm =   0.45   anisotropy =   0.45
volumetric strain =   0.05   shear strain =   0.13
Dkp =    0.308019E+03   dilatancy =      0.064
 ==============================================================
 noel =            1  npt =            1  number =           73
 ==============================================================
 Stress Tensor : 
Row 1: [143.93,   0.00,  -0.00]
Row 2: [  0.00, 100.22,   0.00]
Row 3: [ -0.00,   0.00, 100.22]
 Fabric Tensor : 
Row 1: [  0.37,   0.00,   0.00]
Row 2: [  0.00,  -0.18,   0.00]
Row 3: [  0.00,   0.00,  -0.18]
Hardening =  3.842713E-01
mean stress = 114.79   deviatoric stress =  43.72
ratio stress =   0.38
fabric norm =   0.45   anisotropy =   0.45
volumetric strain =   0.05   shear strain =   0.13
Dkp =    0.307590E+03   dilatancy =      0.064
 ==============================================================
 noel =            1  npt =            1  number =           74
 ==============================================================
 Stress Tensor : 
Row 1: [149.95,   0.00,  -0.00]
Row 2: [  0.00, 100.47,   0.00]
Row 3: [ -0.00,   0.00, 100.47]
 Fabric Tensor : 
Row 1: [  0.37,   0.00,   0.00]
Row 2: [  0.00,  -0.18,   0.00]
Row 3: [  0.00,   0.00,  -0.18]
Hardening =  4.268023E-01
mean stress = 116.96   deviatoric stress =  49.47
ratio stress =   0.42
fabric norm =   0.45   anisotropy =   0.45
volumetric strain =   0.05   shear strain =   0.15
Dkp =    0.263759E+03   dilatancy =      0.061
 ==============================================================
 noel =            1  npt =            1  number =           75
 ==============================================================
 Stress Tensor : 
Row 1: [149.71,   0.00,  -0.00]
Row 2: [  0.00, 100.25,   0.00]
Row 3: [ -0.00,   0.00, 100.25]
 Fabric Tensor : 
Row 1: [  0.37,   0.00,   0.00]
Row 2: [  0.00,  -0.18,   0.00]
Row 3: [  0.00,   0.00,  -0.18]
Hardening =  4.275450E-01
mean stress = 116.74   deviatoric stress =  49.46
ratio stress =   0.42
fabric norm =   0.45   anisotropy =   0.45
volumetric strain =   0.05   shear strain =   0.15
Dkp =    0.263438E+03   dilatancy =      0.061
 ==============================================================
 noel =            1  npt =            1  number =           76
 ==============================================================
 Stress Tensor : 
Row 1: [161.40,   0.00,  -0.00]
Row 2: [  0.00, 100.77,   0.00]
Row 3: [ -0.00,   0.00, 100.77]
 Fabric Tensor : 
Row 1: [  0.37,   0.00,  -0.00]
Row 2: [  0.00,  -0.19,   0.00]
Row 3: [ -0.00,   0.00,  -0.19]
Hardening =  5.057452E-01
mean stress = 120.98   deviatoric stress =  60.64
ratio stress =   0.50
fabric norm =   0.45   anisotropy =   0.45
volumetric strain =   0.07   shear strain =   0.21
Dkp =    0.202556E+03   dilatancy =      0.056
 ==============================================================
 noel =            1  npt =            1  number =           77
 ==============================================================
 Stress Tensor : 
Row 1: [160.92,   0.00,   0.00]
Row 2: [  0.00, 100.41,  -0.00]
Row 3: [  0.00,  -0.00, 100.41]
 Fabric Tensor : 
Row 1: [  0.37,   0.00,   0.00]
Row 2: [  0.00,  -0.19,   0.00]
Row 3: [  0.00,   0.00,  -0.19]
Hardening =  5.062988E-01
mean stress = 120.58   deviatoric stress =  60.51
ratio stress =   0.50
fabric norm =   0.45   anisotropy =   0.45
volumetric strain =   0.07   shear strain =   0.21
Dkp =    0.202641E+03   dilatancy =      0.056
 ==============================================================
 noel =            1  npt =            1  number =           78
 ==============================================================
 Stress Tensor : 
Row 1: [155.95,   0.00,  -0.00]
Row 2: [  0.00, 100.45,   0.00]
Row 3: [ -0.00,   0.00, 100.45]
 Fabric Tensor : 
Row 1: [  0.37,   0.00,  -0.00]
Row 2: [  0.00,  -0.18,   0.00]
Row 3: [ -0.00,   0.00,  -0.18]
Hardening =  4.707277E-01
mean stress = 118.95   deviatoric stress =  55.49
ratio stress =   0.47
fabric norm =   0.45   anisotropy =   0.45
volumetric strain =   0.06   shear strain =   0.18
Dkp =    0.227362E+03   dilatancy =      0.058
 ==============================================================
 noel =            1  npt =            1  number =           79
 ==============================================================
 Stress Tensor : 
Row 1: [155.71,   0.00,  -0.00]
Row 2: [  0.00, 100.24,   0.00]
Row 3: [ -0.00,   0.00, 100.24]
 Fabric Tensor : 
Row 1: [  0.37,   0.00,  -0.00]
Row 2: [  0.00,  -0.18,   0.00]
Row 3: [ -0.00,   0.00,  -0.18]
Hardening =  4.713953E-01
mean stress = 118.73   deviatoric stress =  55.47
ratio stress =   0.47
fabric norm =   0.45   anisotropy =   0.45
volumetric strain =   0.06   shear strain =   0.18
Dkp =    0.227162E+03   dilatancy =      0.058
 ==============================================================
 noel =            1  npt =            1  number =           80
 ==============================================================
 Stress Tensor : 
Row 1: [165.61,   0.00,  -0.00]
Row 2: [  0.00, 100.56,   0.00]
Row 3: [ -0.00,   0.00, 100.56]
 Fabric Tensor : 
Row 1: [  0.37,   0.00,  -0.00]
Row 2: [  0.00,  -0.19,   0.00]
Row 3: [ -0.00,   0.00,  -0.19]
Hardening =  5.368838E-01
mean stress = 122.25   deviatoric stress =  65.05
ratio stress =   0.53
fabric norm =   0.45   anisotropy =   0.45
volumetric strain =   0.07   shear strain =   0.23
Dkp =    0.183853E+03   dilatancy =      0.053
 ==============================================================
 noel =            1  npt =            1  number =           81
 ==============================================================
 Stress Tensor : 
Row 1: [165.28,   0.00,  -0.00]
Row 2: [  0.00, 100.30,   0.00]
Row 3: [ -0.00,   0.00, 100.30]
 Fabric Tensor : 
Row 1: [  0.37,   0.00,  -0.00]
Row 2: [  0.00,  -0.19,   0.00]
Row 3: [ -0.00,   0.00,  -0.19]
Hardening =  5.376360E-01
mean stress = 121.96   deviatoric stress =  64.99
ratio stress =   0.53
fabric norm =   0.45   anisotropy =   0.45
volumetric strain =   0.07   shear strain =   0.23
Dkp =    0.183728E+03   dilatancy =      0.053
 ==============================================================
 noel =            1  npt =            1  number =           82
 ==============================================================
 Stress Tensor : 
Row 1: [165.11,   0.00,  -0.00]
Row 2: [  0.00, 100.16,   0.00]
Row 3: [ -0.00,   0.00, 100.16]
 Fabric Tensor : 
Row 1: [  0.37,   0.00,  -0.00]
Row 2: [  0.00,  -0.19,   0.00]
Row 3: [ -0.00,   0.00,  -0.19]
Hardening =  5.380352E-01
mean stress = 121.81   deviatoric stress =  64.95
ratio stress =   0.53
fabric norm =   0.45   anisotropy =   0.45
volumetric strain =   0.07   shear strain =   0.23
Dkp =    0.183662E+03   dilatancy =      0.053
 ==============================================================
 noel =            1  npt =            1  number =           83
 ==============================================================
 Stress Tensor : 
Row 1: [179.11,   0.00,  -0.00]
Row 2: [  0.00, 100.69,   0.00]
Row 3: [ -0.00,   0.00, 100.69]
 Fabric Tensor : 
Row 1: [  0.37,   0.00,  -0.00]
Row 2: [  0.00,  -0.19,   0.00]
Row 3: [ -0.00,   0.00,  -0.19]
Hardening =  6.237914E-01
mean stress = 126.83   deviatoric stress =  78.41
ratio stress =   0.62
fabric norm =   0.46   anisotropy =   0.46
volumetric strain =   0.09   shear strain =   0.32
Dkp =    0.141124E+03   dilatancy =      0.046
 ==============================================================
 noel =            1  npt =            1  number =           84
 ==============================================================
 Stress Tensor : 
Row 1: [178.66,   0.00,   0.00]
Row 2: [  0.00, 100.37,  -0.00]
Row 3: [  0.00,  -0.00, 100.37]
 Fabric Tensor : 
Row 1: [  0.37,   0.00,  -0.00]
Row 2: [  0.00,  -0.19,   0.00]
Row 3: [ -0.00,   0.00,  -0.19]
Hardening =  6.246153E-01
mean stress = 126.46   deviatoric stress =  78.29
ratio stress =   0.62
fabric norm =   0.46   anisotropy =   0.46
volumetric strain =   0.09   shear strain =   0.32
Dkp =    0.141075E+03   dilatancy =      0.046
 ==============================================================
 noel =            1  npt =            1  number =           85
 ==============================================================
 Stress Tensor : 
Row 1: [178.42,   0.00,   0.00]
Row 2: [  0.00, 100.19,  -0.00]
Row 3: [  0.00,  -0.00, 100.19]
 Fabric Tensor : 
Row 1: [  0.37,   0.00,  -0.00]
Row 2: [  0.00,  -0.19,   0.00]
Row 3: [ -0.00,   0.00,  -0.19]
Hardening =  6.250529E-01
mean stress = 126.27   deviatoric stress =  78.23
ratio stress =   0.62
fabric norm =   0.46   anisotropy =   0.46
volumetric strain =   0.09   shear strain =   0.32
Dkp =    0.141049E+03   dilatancy =      0.046
 ==============================================================
 noel =            1  npt =            1  number =           86
 ==============================================================
 Stress Tensor : 
Row 1: [191.11,   0.00,   0.00]
Row 2: [  0.00, 100.83,  -0.00]
Row 3: [  0.00,  -0.00, 100.83]
 Fabric Tensor : 
Row 1: [  0.37,   0.00,   0.00]
Row 2: [  0.00,  -0.19,   0.00]
Row 3: [  0.00,   0.00,  -0.19]
Hardening =  6.957035E-01
mean stress = 130.92   deviatoric stress =  90.28
ratio stress =   0.69
fabric norm =   0.46   anisotropy =   0.46
volumetric strain =   0.10   shear strain =   0.40
Dkp =    0.114119E+03   dilatancy =      0.039
 ==============================================================
 noel =            1  npt =            1  number =           87
 ==============================================================
 Stress Tensor : 
Row 1: [190.52,   0.00,   0.00]
Row 2: [  0.00, 100.44,  -0.00]
Row 3: [  0.00,  -0.00, 100.44]
 Fabric Tensor : 
Row 1: [  0.37,   0.00,   0.00]
Row 2: [  0.00,  -0.19,   0.00]
Row 3: [  0.00,   0.00,  -0.19]
Hardening =  6.965852E-01
mean stress = 130.47   deviatoric stress =  90.08
ratio stress =   0.69
fabric norm =   0.46   anisotropy =   0.46
volumetric strain =   0.10   shear strain =   0.40
Dkp =    0.114121E+03   dilatancy =      0.039
 ==============================================================
 noel =            1  npt =            1  number =           88
 ==============================================================
 Stress Tensor : 
Row 1: [190.21,   0.00,   0.00]
Row 2: [  0.00, 100.23,  -0.00]
Row 3: [  0.00,  -0.00, 100.23]
 Fabric Tensor : 
Row 1: [  0.37,   0.00,   0.00]
Row 2: [  0.00,  -0.19,   0.00]
Row 3: [  0.00,   0.00,  -0.19]
Hardening =  6.970530E-01
mean stress = 130.22   deviatoric stress =  89.97
ratio stress =   0.69
fabric norm =   0.46   anisotropy =   0.46
volumetric strain =   0.10   shear strain =   0.40
Dkp =    0.114122E+03   dilatancy =      0.039
 ==============================================================
 noel =            1  npt =            1  number =           89
 ==============================================================
 Stress Tensor : 
Row 1: [201.60,   0.00,   0.00]
Row 2: [  0.00, 100.73,   0.00]
Row 3: [  0.00,   0.00, 100.73]
 Fabric Tensor : 
Row 1: [  0.37,   0.00,   0.00]
Row 2: [  0.00,  -0.19,   0.00]
Row 3: [  0.00,   0.00,  -0.19]
Hardening =  7.574216E-01
mean stress = 134.35   deviatoric stress = 100.87
ratio stress =   0.75
fabric norm =   0.46   anisotropy =   0.46
volumetric strain =   0.11   shear strain =   0.49
Dkp =    0.953776E+02   dilatancy =      0.033
 ==============================================================
 noel =            1  npt =            1  number =           90
 ==============================================================
 Stress Tensor : 
Row 1: [201.04,   0.00,   0.00]
Row 2: [  0.00, 100.38,  -0.00]
Row 3: [  0.00,  -0.00, 100.38]
 Fabric Tensor : 
Row 1: [  0.37,   0.00,   0.00]
Row 2: [  0.00,  -0.19,   0.00]
Row 3: [  0.00,   0.00,  -0.19]
Hardening =  7.581293E-01
mean stress = 133.94   deviatoric stress = 100.65
ratio stress =   0.75
fabric norm =   0.46   anisotropy =   0.46
volumetric strain =   0.11   shear strain =   0.49
Dkp =    0.954064E+02   dilatancy =      0.033
 ==============================================================
 noel =            1  npt =            1  number =           91
 ==============================================================
 Stress Tensor : 
Row 1: [200.74,   0.00,   0.00]
Row 2: [  0.00, 100.20,  -0.00]
Row 3: [  0.00,  -0.00, 100.20]
 Fabric Tensor : 
Row 1: [  0.37,   0.00,   0.00]
Row 2: [  0.00,  -0.19,   0.00]
Row 3: [  0.00,   0.00,  -0.19]
Hardening =  7.585029E-01
mean stress = 133.72   deviatoric stress = 100.54
ratio stress =   0.75
fabric norm =   0.46   anisotropy =   0.46
volumetric strain =   0.11   shear strain =   0.49
Dkp =    0.954217E+02   dilatancy =      0.033
 ==============================================================
 noel =            1  npt =            1  number =           92
 ==============================================================
 Stress Tensor : 
Row 1: [211.01,   0.00,   0.00]
Row 2: [  0.00, 100.55,  -0.00]
Row 3: [  0.00,  -0.00, 100.55]
 Fabric Tensor : 
Row 1: [  0.38,   0.00,   0.00]
Row 2: [  0.00,  -0.19,   0.00]
Row 3: [  0.00,   0.00,  -0.19]
Hardening =  8.111780E-01
mean stress = 137.37   deviatoric stress = 110.47
ratio stress =   0.80
fabric norm =   0.46   anisotropy =   0.46
volumetric strain =   0.12   shear strain =   0.57
Dkp =    0.815665E+02   dilatancy =      0.027
 ==============================================================
 noel =            1  npt =            1  number =           93
 ==============================================================
 Stress Tensor : 
Row 1: [210.56,   0.00,   0.00]
Row 2: [  0.00, 100.29,  -0.00]
Row 3: [  0.00,  -0.00, 100.29]
 Fabric Tensor : 
Row 1: [  0.38,   0.00,   0.00]
Row 2: [  0.00,  -0.19,   0.00]
Row 3: [  0.00,   0.00,  -0.19]
Hardening =  8.116651E-01
mean stress = 137.05   deviatoric stress = 110.27
ratio stress =   0.80
fabric norm =   0.46   anisotropy =   0.46
volumetric strain =   0.12   shear strain =   0.57
Dkp =    0.815994E+02   dilatancy =      0.027
 ==============================================================
 noel =            1  npt =            1  number =           94
 ==============================================================
 Stress Tensor : 
Row 1: [210.32,   0.00,   0.00]
Row 2: [  0.00, 100.15,  -0.00]
Row 3: [  0.00,  -0.00, 100.15]
 Fabric Tensor : 
Row 1: [  0.38,   0.00,   0.00]
Row 2: [  0.00,  -0.19,   0.00]
Row 3: [  0.00,   0.00,  -0.19]
Hardening =  8.119219E-01
mean stress = 136.87   deviatoric stress = 110.17
ratio stress =   0.80
fabric norm =   0.46   anisotropy =   0.46
volumetric strain =   0.12   shear strain =   0.57
Dkp =    0.816168E+02   dilatancy =      0.027
 ==============================================================
 noel =            1  npt =            1  number =           95
 ==============================================================
 Stress Tensor : 
Row 1: [219.73,   0.00,   0.00]
Row 2: [  0.00, 100.42,  -0.00]
Row 3: [  0.00,  -0.00, 100.42]
 Fabric Tensor : 
Row 1: [  0.38,   0.00,   0.00]
Row 2: [  0.00,  -0.19,   0.00]
Row 3: [  0.00,   0.00,  -0.19]
Hardening =  8.584548E-01
mean stress = 140.19   deviatoric stress = 119.31
ratio stress =   0.85
fabric norm =   0.46   anisotropy =   0.46
volumetric strain =   0.13   shear strain =   0.66
Dkp =    0.709289E+02   dilatancy =      0.022
 ==============================================================
 noel =            1  npt =            1  number =           96
 ==============================================================
 Stress Tensor : 
Row 1: [219.36,   0.00,   0.00]
[...]
 Stress Tensor : 
Row 1: [398.49,  -0.00,  -0.00]
Row 2: [ -0.00, 100.03,   0.00]
Row 3: [ -0.00,   0.00, 100.03]
 Fabric Tensor : 
Row 1: [  0.62,   0.00,   0.00]
Row 2: [  0.00,  -0.31,   0.00]
Row 3: [  0.00,   0.00,  -0.31]
Hardening =  1.498499E+00
mean stress = 199.52   deviatoric stress = 298.45
ratio stress =   1.50
fabric norm =   0.76   anisotropy =   0.76
volumetric strain =  -0.52   shear strain =  18.01
Dkp =    0.114454E+00   dilatancy =     -0.085
 ==============================================================
 noel =            1  npt =            1  number =          453
 ==============================================================
 Stress Tensor : 
Row 1: [398.42,  -0.00,  -0.00]
Row 2: [ -0.00, 100.02,   0.00]
Row 3: [ -0.00,   0.00, 100.02]
 Fabric Tensor : 
Row 1: [  0.62,   0.00,   0.00]
Row 2: [  0.00,  -0.31,   0.00]
Row 3: [  0.00,   0.00,  -0.31]
Hardening =  1.498500E+00
mean stress = 199.48   deviatoric stress = 298.40
ratio stress =   1.50
fabric norm =   0.76   anisotropy =   0.76
volumetric strain =  -0.52   shear strain =  18.01
Dkp =    0.116230E+00   dilatancy =     -0.085
 ==============================================================
 noel =            1  npt =            1  number =          454
 ==============================================================
 Stress Tensor : 
Row 1: [398.53,  -0.00,  -0.00]
Row 2: [ -0.00, 100.03,   0.00]
Row 3: [ -0.00,   0.00, 100.03]
 Fabric Tensor : 
Row 1: [  0.62,   0.00,   0.00]
Row 2: [  0.00,  -0.31,   0.00]
Row 3: [  0.00,   0.00,  -0.31]
Hardening =  1.498574E+00
mean stress = 199.53   deviatoric stress = 298.49
ratio stress =   1.50
fabric norm =   0.76   anisotropy =   0.76
volumetric strain =  -0.53   shear strain =  18.12
Dkp =    0.111195E+00   dilatancy =     -0.085
 ==============================================================
 noel =            1  npt =            1  number =          455
 ==============================================================
 Stress Tensor : 
Row 1: [398.46,  -0.00,  -0.00]
Row 2: [ -0.00, 100.02,   0.00]
Row 3: [ -0.00,   0.00, 100.02]
 Fabric Tensor : 
Row 1: [  0.62,   0.00,   0.00]
Row 2: [  0.00,  -0.31,   0.00]
Row 3: [  0.00,   0.00,  -0.31]
Hardening =  1.498575E+00
mean stress = 199.50   deviatoric stress = 298.44
ratio stress =   1.50
fabric norm =   0.76   anisotropy =   0.76
volumetric strain =  -0.53   shear strain =  18.12
Dkp =    0.112970E+00   dilatancy =     -0.085
 ==============================================================
 noel =            1  npt =            1  number =          456
 ==============================================================
 Stress Tensor : 
Row 1: [398.57,  -0.00,  -0.00]
Row 2: [ -0.00, 100.03,   0.00]
Row 3: [ -0.00,   0.00, 100.03]
 Fabric Tensor : 
Row 1: [  0.62,   0.00,   0.00]
Row 2: [  0.00,  -0.31,   0.00]
Row 3: [  0.00,   0.00,  -0.31]
Hardening =  1.498646E+00
mean stress = 199.54   deviatoric stress = 298.53
ratio stress =   1.50
fabric norm =   0.76   anisotropy =   0.76
volumetric strain =  -0.54   shear strain =  18.22
Dkp =    0.107961E+00   dilatancy =     -0.085
 ==============================================================
 noel =            1  npt =            1  number =          457
 ==============================================================
 Stress Tensor : 
Row 1: [398.50,  -0.00,  -0.00]
Row 2: [ -0.00, 100.02,   0.00]
Row 3: [ -0.00,   0.00, 100.02]
 Fabric Tensor : 
Row 1: [  0.62,   0.00,   0.00]
Row 2: [  0.00,  -0.31,   0.00]
Row 3: [  0.00,   0.00,  -0.31]
Hardening =  1.498647E+00
mean stress = 199.51   deviatoric stress = 298.48
ratio stress =   1.50
fabric norm =   0.76   anisotropy =   0.76
volumetric strain =  -0.54   shear strain =  18.22
Dkp =    0.109735E+00   dilatancy =     -0.085
 ==============================================================
 noel =            1  npt =            1  number =          458
 ==============================================================
 Stress Tensor : 
Row 1: [398.60,  -0.00,  -0.00]
Row 2: [ -0.00, 100.03,   0.00]
Row 3: [ -0.00,   0.00, 100.03]
 Fabric Tensor : 
Row 1: [  0.62,   0.00,   0.00]
Row 2: [  0.00,  -0.31,   0.00]
Row 3: [  0.00,   0.00,  -0.31]
Hardening =  1.498716E+00
mean stress = 199.56   deviatoric stress = 298.57
ratio stress =   1.50
fabric norm =   0.76   anisotropy =   0.76
volumetric strain =  -0.54   shear strain =  18.33
Dkp =    0.104753E+00   dilatancy =     -0.085
 ==============================================================
 noel =            1  npt =            1  number =          459
 ==============================================================
 Stress Tensor : 
Row 1: [398.54,  -0.00,  -0.00]
Row 2: [ -0.00, 100.02,   0.00]
Row 3: [ -0.00,   0.00, 100.02]
 Fabric Tensor : 
Row 1: [  0.62,   0.00,   0.00]
Row 2: [  0.00,  -0.31,   0.00]
Row 3: [  0.00,   0.00,  -0.31]
Hardening =  1.498717E+00
mean stress = 199.52   deviatoric stress = 298.52
ratio stress =   1.50
fabric norm =   0.76   anisotropy =   0.76
volumetric strain =  -0.54   shear strain =  18.33
Dkp =    0.106527E+00   dilatancy =     -0.085
 ==============================================================
 noel =            1  npt =            1  number =          460
 ==============================================================
 Stress Tensor : 
Row 1: [398.64,  -0.00,  -0.00]
Row 2: [ -0.00, 100.03,   0.00]
Row 3: [ -0.00,   0.00, 100.03]
 Fabric Tensor : 
Row 1: [  0.62,   0.00,   0.00]
Row 2: [  0.00,  -0.31,   0.00]
Row 3: [  0.00,   0.00,  -0.31]
Hardening =  1.498784E+00
mean stress = 199.57   deviatoric stress = 298.61
ratio stress =   1.50
fabric norm =   0.76   anisotropy =   0.76
volumetric strain =  -0.55   shear strain =  18.43
Dkp =    0.101569E+00   dilatancy =     -0.085
 ==============================================================
 noel =            1  npt =            1  number =          461
 ==============================================================
 Stress Tensor : 
Row 1: [398.57,  -0.00,  -0.00]
Row 2: [ -0.00, 100.02,   0.00]
Row 3: [ -0.00,   0.00, 100.02]
 Fabric Tensor : 
Row 1: [  0.62,   0.00,   0.00]
Row 2: [  0.00,  -0.31,   0.00]
Row 3: [  0.00,   0.00,  -0.31]
Hardening =  1.498784E+00
mean stress = 199.54   deviatoric stress = 298.56
ratio stress =   1.50
fabric norm =   0.76   anisotropy =   0.76
volumetric strain =  -0.55   shear strain =  18.43
Dkp =    0.103343E+00   dilatancy =     -0.085
 ==============================================================
 noel =            1  npt =            1  number =          462
 ==============================================================
 Stress Tensor : 
Row 1: [398.68,  -0.00,  -0.00]
Row 2: [ -0.00, 100.03,   0.00]
Row 3: [ -0.00,   0.00, 100.03]
 Fabric Tensor : 
Row 1: [  0.62,   0.00,   0.00]
Row 2: [  0.00,  -0.31,   0.00]
Row 3: [  0.00,   0.00,  -0.31]
Hardening =  1.498849E+00
mean stress = 199.58   deviatoric stress = 298.64
ratio stress =   1.50
fabric norm =   0.76   anisotropy =   0.76
volumetric strain =  -0.55   shear strain =  18.53
Dkp =    0.984100E-01   dilatancy =     -0.085
 ==============================================================
 noel =            1  npt =            1  number =          463
 ==============================================================
 Stress Tensor : 
Row 1: [398.61,  -0.00,  -0.00]
Row 2: [ -0.00, 100.02,   0.00]
Row 3: [ -0.00,   0.00, 100.02]
 Fabric Tensor : 
Row 1: [  0.62,   0.00,   0.00]
Row 2: [  0.00,  -0.31,   0.00]
Row 3: [  0.00,   0.00,  -0.31]
Hardening =  1.498850E+00
mean stress = 199.55   deviatoric stress = 298.59
ratio stress =   1.50
fabric norm =   0.76   anisotropy =   0.76
volumetric strain =  -0.55   shear strain =  18.53
Dkp =    0.100183E+00   dilatancy =     -0.085
 ==============================================================
 noel =            1  npt =            1  number =          464
 ==============================================================
 Stress Tensor : 
Row 1: [398.71,  -0.00,  -0.00]
Row 2: [ -0.00, 100.03,   0.00]
Row 3: [ -0.00,   0.00, 100.03]
 Fabric Tensor : 
Row 1: [  0.62,   0.00,   0.00]
Row 2: [  0.00,  -0.31,   0.00]
Row 3: [  0.00,   0.00,  -0.31]
Hardening =  1.498911E+00
mean stress = 199.59   deviatoric stress = 298.68
ratio stress =   1.50
fabric norm =   0.77   anisotropy =   0.77
volumetric strain =  -0.56   shear strain =  18.64
Dkp =    0.952748E-01   dilatancy =     -0.085
 ==============================================================
 noel =            1  npt =            1  number =          465
 ==============================================================
 Stress Tensor : 
Row 1: [398.64,  -0.00,  -0.00]
Row 2: [ -0.00, 100.02,   0.00]
Row 3: [ -0.00,   0.00, 100.02]
 Fabric Tensor : 
Row 1: [  0.62,   0.00,   0.00]
Row 2: [  0.00,  -0.31,   0.00]
Row 3: [  0.00,   0.00,  -0.31]
Hardening =  1.498912E+00
mean stress = 199.56   deviatoric stress = 298.63
ratio stress =   1.50
fabric norm =   0.77   anisotropy =   0.77
volumetric strain =  -0.56   shear strain =  18.64
Dkp =    0.970477E-01   dilatancy =     -0.085
 ==============================================================
 noel =            1  npt =            1  number =          466
 ==============================================================
 Stress Tensor : 
Row 1: [398.74,  -0.00,  -0.00]
Row 2: [ -0.00, 100.03,   0.00]
Row 3: [ -0.00,   0.00, 100.03]
 Fabric Tensor : 
Row 1: [  0.63,   0.00,   0.00]
Row 2: [  0.00,  -0.31,   0.00]
Row 3: [  0.00,   0.00,  -0.31]
Hardening =  1.498972E+00
mean stress = 199.60   deviatoric stress = 298.71
ratio stress =   1.50
fabric norm =   0.77   anisotropy =   0.77
volumetric strain =  -0.57   shear strain =  18.74
Dkp =    0.921630E-01   dilatancy =     -0.085
 ==============================================================
 noel =            1  npt =            1  number =          467
 ==============================================================
 Stress Tensor : 
Row 1: [398.68,  -0.00,  -0.00]
Row 2: [ -0.00, 100.02,   0.00]
Row 3: [ -0.00,   0.00, 100.02]
 Fabric Tensor : 
Row 1: [  0.63,   0.00,   0.00]
Row 2: [  0.00,  -0.31,   0.00]
Row 3: [  0.00,   0.00,  -0.31]
Hardening =  1.498973E+00
mean stress = 199.57   deviatoric stress = 298.66
ratio stress =   1.50
fabric norm =   0.77   anisotropy =   0.77
volumetric strain =  -0.57   shear strain =  18.74
Dkp =    0.939356E-01   dilatancy =     -0.085
 ==============================================================
 noel =            1  npt =            1  number =          468
 ==============================================================
 Stress Tensor : 
Row 1: [398.78,  -0.00,  -0.00]
Row 2: [ -0.00, 100.03,   0.00]
Row 3: [ -0.00,   0.00, 100.03]
 Fabric Tensor : 
Row 1: [  0.63,   0.00,   0.00]
Row 2: [  0.00,  -0.31,   0.00]
Row 3: [  0.00,   0.00,  -0.31]
Hardening =  1.499030E+00
mean stress = 199.61   deviatoric stress = 298.74
ratio stress =   1.50
fabric norm =   0.77   anisotropy =   0.77
volumetric strain =  -0.57   shear strain =  18.85
Dkp =    0.890742E-01   dilatancy =     -0.085
 ==============================================================
 noel =            1  npt =            1  number =          469
 ==============================================================
 Stress Tensor : 
Row 1: [398.71,  -0.00,  -0.00]
Row 2: [ -0.00, 100.02,   0.00]
Row 3: [ -0.00,   0.00, 100.02]
 Fabric Tensor : 
Row 1: [  0.63,   0.00,   0.00]
Row 2: [  0.00,  -0.31,   0.00]
Row 3: [  0.00,   0.00,  -0.31]
Hardening =  1.499030E+00
mean stress = 199.58   deviatoric stress = 298.69
ratio stress =   1.50
fabric norm =   0.77   anisotropy =   0.77
volumetric strain =  -0.57   shear strain =  18.85
Dkp =    0.908464E-01   dilatancy =     -0.085
 ==============================================================
 noel =            1  npt =            1  number =          470
 ==============================================================
 Stress Tensor : 
Row 1: [398.81,  -0.00,  -0.00]
Row 2: [ -0.00, 100.03,   0.00]
Row 3: [ -0.00,   0.00, 100.03]
 Fabric Tensor : 
Row 1: [  0.63,   0.00,   0.00]
Row 2: [  0.00,  -0.31,   0.00]
Row 3: [  0.00,   0.00,  -0.31]
Hardening =  1.499085E+00
mean stress = 199.62   deviatoric stress = 298.77
ratio stress =   1.50
fabric norm =   0.77   anisotropy =   0.77
volumetric strain =  -0.58   shear strain =  18.95
Dkp =    0.860080E-01   dilatancy =     -0.085
 ==============================================================
 noel =            1  npt =            1  number =          471
 ==============================================================
 Stress Tensor : 
Row 1: [398.74,  -0.00,  -0.00]
Row 2: [ -0.00, 100.02,   0.00]
Row 3: [ -0.00,   0.00, 100.02]
 Fabric Tensor : 
Row 1: [  0.63,   0.00,   0.00]
Row 2: [  0.00,  -0.31,   0.00]
Row 3: [  0.00,   0.00,  -0.31]
Hardening =  1.499086E+00
mean stress = 199.59   deviatoric stress = 298.73
ratio stress =   1.50
fabric norm =   0.77   anisotropy =   0.77
volumetric strain =  -0.58   shear strain =  18.95
Dkp =    0.877799E-01   dilatancy =     -0.085
 ==============================================================
 noel =            1  npt =            1  number =          472
 ==============================================================
 Stress Tensor : 
Row 1: [398.84,  -0.00,  -0.00]
Row 2: [ -0.00, 100.03,   0.00]
Row 3: [ -0.00,   0.00, 100.03]
 Fabric Tensor : 
Row 1: [  0.63,   0.00,   0.00]
Row 2: [  0.00,  -0.31,   0.00]
Row 3: [  0.00,   0.00,  -0.31]
Hardening =  1.499138E+00
mean stress = 199.64   deviatoric stress = 298.81
ratio stress =   1.50
fabric norm =   0.77   anisotropy =   0.77
volumetric strain =  -0.58   shear strain =  19.06
Dkp =    0.829640E-01   dilatancy =     -0.085
 ==============================================================
 noel =            1  npt =            1  number =          473
 ==============================================================
 Stress Tensor : 
Row 1: [398.77,  -0.00,  -0.00]
Row 2: [ -0.00, 100.02,   0.00]
Row 3: [ -0.00,   0.00, 100.02]
 Fabric Tensor : 
Row 1: [  0.63,   0.00,   0.00]
Row 2: [  0.00,  -0.31,   0.00]
Row 3: [  0.00,   0.00,  -0.31]
Hardening =  1.499139E+00
mean stress = 199.60   deviatoric stress = 298.76
ratio stress =   1.50
fabric norm =   0.77   anisotropy =   0.77
volumetric strain =  -0.58   shear strain =  19.06
Dkp =    0.847355E-01   dilatancy =     -0.085
 ==============================================================
 noel =            1  npt =            1  number =          474
 ==============================================================
 Stress Tensor : 
Row 1: [398.87,  -0.00,  -0.00]
Row 2: [ -0.00, 100.03,   0.00]
Row 3: [ -0.00,   0.00, 100.03]
 Fabric Tensor : 
Row 1: [  0.63,   0.00,   0.00]
Row 2: [  0.00,  -0.31,   0.00]
Row 3: [  0.00,   0.00,  -0.31]
Hardening =  1.499189E+00
mean stress = 199.64   deviatoric stress = 298.83
ratio stress =   1.50
fabric norm =   0.77   anisotropy =   0.77
volumetric strain =  -0.59   shear strain =  19.16
Dkp =    0.799418E-01   dilatancy =     -0.085
 ==============================================================
 noel =            1  npt =            1  number =          475
 ==============================================================
 Stress Tensor : 
Row 1: [398.80,  -0.00,  -0.00]
Row 2: [ -0.00, 100.02,   0.00]
Row 3: [ -0.00,   0.00, 100.02]
 Fabric Tensor : 
Row 1: [  0.63,   0.00,   0.00]
Row 2: [  0.00,  -0.31,   0.00]
Row 3: [  0.00,   0.00,  -0.31]
Hardening =  1.499190E+00
mean stress = 199.61   deviatoric stress = 298.78
ratio stress =   1.50
fabric norm =   0.77   anisotropy =   0.77
volumetric strain =  -0.59   shear strain =  19.16
Dkp =    0.817130E-01   dilatancy =     -0.085
 ==============================================================
 noel =            1  npt =            1  number =          476
 ==============================================================
 Stress Tensor : 
Row 1: [398.90,  -0.00,  -0.00]
Row 2: [ -0.00, 100.03,   0.00]
Row 3: [ -0.00,   0.00, 100.03]
 Fabric Tensor : 
Row 1: [  0.63,   0.00,   0.00]
Row 2: [  0.00,  -0.32,   0.00]
Row 3: [  0.00,   0.00,  -0.32]
Hardening =  1.499238E+00
mean stress = 199.65   deviatoric stress = 298.86
ratio stress =   1.50
fabric norm =   0.77   anisotropy =   0.77
volumetric strain =  -0.59   shear strain =  19.27
Dkp =    0.769410E-01   dilatancy =     -0.085
 ==============================================================
 noel =            1  npt =            1  number =          477
 ==============================================================
 Stress Tensor : 
Row 1: [398.83,  -0.00,  -0.00]
Row 2: [ -0.00, 100.02,   0.00]
Row 3: [ -0.00,   0.00, 100.02]
 Fabric Tensor : 
Row 1: [  0.63,   0.00,   0.00]
Row 2: [  0.00,  -0.32,   0.00]
Row 3: [  0.00,   0.00,  -0.32]
Hardening =  1.499239E+00
mean stress = 199.62   deviatoric stress = 298.81
ratio stress =   1.50
fabric norm =   0.77   anisotropy =   0.77
volumetric strain =  -0.60   shear strain =  19.27
Dkp =    0.787120E-01   dilatancy =     -0.085
 ==============================================================
 noel =            1  npt =            1  number =          478
 ==============================================================
 Stress Tensor : 
Row 1: [398.92,  -0.00,  -0.00]
Row 2: [ -0.00, 100.03,   0.00]
Row 3: [ -0.00,   0.00, 100.03]
 Fabric Tensor : 
Row 1: [  0.63,   0.00,   0.00]
Row 2: [  0.00,  -0.32,   0.00]
Row 3: [  0.00,   0.00,  -0.32]
Hardening =  1.499284E+00
mean stress = 199.66   deviatoric stress = 298.89
ratio stress =   1.50
fabric norm =   0.77   anisotropy =   0.77
volumetric strain =  -0.60   shear strain =  19.37
Dkp =    0.739614E-01   dilatancy =     -0.085
 ==============================================================
 noel =            1  npt =            1  number =          479
 ==============================================================
 Stress Tensor : 
Row 1: [398.86,  -0.00,  -0.00]
Row 2: [ -0.00, 100.02,   0.00]
Row 3: [ -0.00,   0.00, 100.02]
 Fabric Tensor : 
Row 1: [  0.63,   0.00,   0.00]
Row 2: [  0.00,  -0.32,   0.00]
Row 3: [  0.00,   0.00,  -0.32]
Hardening =  1.499285E+00
mean stress = 199.63   deviatoric stress = 298.84
ratio stress =   1.50
fabric norm =   0.77   anisotropy =   0.77
volumetric strain =  -0.60   shear strain =  19.37
Dkp =    0.757320E-01   dilatancy =     -0.085
 ==============================================================
 noel =            1  npt =            1  number =          480
 ==============================================================
 Stress Tensor : 
Row 1: [398.95,  -0.00,  -0.00]
Row 2: [ -0.00, 100.03,   0.00]
Row 3: [ -0.00,   0.00, 100.03]
 Fabric Tensor : 
Row 1: [  0.63,   0.00,   0.00]
Row 2: [  0.00,  -0.32,   0.00]
Row 3: [  0.00,   0.00,  -0.32]
Hardening =  1.499328E+00
mean stress = 199.67   deviatoric stress = 298.92
ratio stress =   1.50
fabric norm =   0.77   anisotropy =   0.77
volumetric strain =  -0.61   shear strain =  19.48
Dkp =    0.710025E-01   dilatancy =     -0.085
 ==============================================================
 noel =            1  npt =            1  number =          481
 ==============================================================
 Stress Tensor : 
Row 1: [398.88,  -0.00,  -0.00]
Row 2: [ -0.00, 100.02,   0.00]
Row 3: [ -0.00,   0.00, 100.02]
 Fabric Tensor : 
Row 1: [  0.63,   0.00,   0.00]
Row 2: [  0.00,  -0.32,   0.00]
Row 3: [  0.00,   0.00,  -0.32]
Hardening =  1.499329E+00
mean stress = 199.64   deviatoric stress = 298.87
ratio stress =   1.50
fabric norm =   0.77   anisotropy =   0.77
volumetric strain =  -0.61   shear strain =  19.48
Dkp =    0.727729E-01   dilatancy =     -0.085


          THE ANALYSIS HAS BEEN COMPLETED



                              ANALYSIS COMPLETE
                              WITH      2 WARNING MESSAGES ON THE DAT FILE



     JOB TIME SUMMARY
       USER TIME (SEC)      =      15.    
       SYSTEM TIME (SEC)    =      1.5    
       TOTAL CPU TIME (SEC) =      17.    
       WALLCLOCK TIME (SEC) =           17
