 Abaqus/Standard 2025                  DATE 24-12ÔÂ-2025 TIME 01:35:53
 SUMMARY OF JOB INFORMATION:
 STEP  INC ATT SEVERE EQUIL TOTAL  TOTAL      STEP       INC OF       DOF    IF
               DISCON ITERS ITERS  TIME/    TIME/LPF    TIME/LPF    MONITOR RIKS
               ITERS               FREQ
   1     1   1     0     1     1  0.0100     0.0100     0.01000   
   2     1   1     0     1     1  0.0100     1.00e-06   1.000e-06 
   2     2   1     0     1     1  0.0100     2.00e-06   1.000e-06 
   2     3   1     0     1     1  0.0100     3.50e-06   1.500e-06 
   2     4   1     0     1     1  0.0100     5.75e-06   2.250e-06 
   2     5   1     0     1     1  0.0100     9.12e-06   3.375e-06 
   2     6   1     0     1     1  0.0100     1.42e-05   5.062e-06 
   2     7   1     0     1     1  0.0100     2.18e-05   7.594e-06 
   2     8   1     0     1     1  0.0100     3.32e-05   1.139e-05 
   2     9   1     0     1     1  0.0101     5.03e-05   1.709e-05 
   2    10   1     0     1     1  0.0101     7.59e-05   2.563e-05 
   2    11   1     0     1     1  0.0101     0.000114   3.844e-05 
   2    12   1     0     1     1  0.0102     0.000172   5.767e-05 
   2    13   1     0     1     1  0.0103     0.000258   8.650e-05 
   2    14   1     0     1     1  0.0104     0.000388   0.0001297 
   2    15   1     0     1     1  0.0106     0.000583   0.0001946 
   2    16   1     0     1     1  0.0109     0.000875   0.0002919 
   2    17   1     0     1     1  0.0113     0.00131    0.0004379 
   2    18   1     0     1     1  0.0120     0.00197    0.0006568 
   2    19   1     0     1     1  0.0130     0.00295    0.0009853 
   2    20   1     0     1     1  0.0144     0.00443    0.001478  
   2    21   1     0     1     1  0.0166     0.00665    0.002217  
   2    22   1     0     1     1  0.0200     0.00997    0.003325  
   2    23   1U    0     1     1  0.0200     0.00997    0.004988  
   2    23   2     0     2     2  0.0225     0.0125     0.002494  
   2    24   1     0     1     1  0.0262     0.0162     0.003741  
   2    25   1     0     1     1  0.0318     0.0218     0.005611  
   2    26   1     0     1     1  0.0402     0.0302     0.008417  
   2    27   1U    0     1     1  0.0402     0.0302     0.01263   
   2    27   2     0     2     2  0.0466     0.0366     0.006313  
   2    28   1     0     1     1  0.0560     0.0460     0.009469  
   2    29   1     0     1     1  0.0700     0.0600     0.01398   
   2    30   1     0     2     2  0.0910     0.0810     0.02097   
   2    31   1U    0     1     1  0.0910     0.0810     0.03903   
   2    31   2     0     1     1  0.110      0.100      0.01952   
   2    32   1     0     1     1  0.130      0.120      0.01952   
   2    33   1U    0     1     1  0.130      0.120      0.04391   
   2    33   2     0     1     1  0.152      0.142      0.02195   
   2    34   1     0     2     2  0.190      0.180      0.03805   
   2    35   1     0     2     2  0.250      0.240      0.06000   
   2    36   1     0     2     2  0.310      0.300      0.06000   
   2    37   1     0     2     2  0.370      0.360      0.06000   
   2    38   1     0     2     2  0.430      0.420      0.06000   
   2    39   1     0     1     1  0.490      0.480      0.06000   
   2    40   1     0     2     2  0.550      0.540      0.06000   
   2    41   1     0     1     1  0.610      0.600      0.06000   
   2    42   1     0     1     1  0.670      0.660      0.06000   
   2    43   1     0     1     1  0.730      0.720      0.06000   
   2    44   1     0     1     1  0.790      0.780      0.06000   
   2    45   1     0     1     1  0.850      0.840      0.06000   
   2    46   1     0     1     1  0.910      0.900      0.06000   
   2    47   1     0     1     1  0.970      0.960      0.06000   
   2    48   1     0     1     1  1.03       1.02       0.06000   
   2    49   1     0     1     1  1.09       1.08       0.06000   
   2    50   1     0     1     1  1.15       1.14       0.06000   
   2    51   1     0     1     1  1.21       1.20       0.06000   
   2    52   1     0     1     1  1.27       1.26       0.06000   
   2    53   1     0     1     1  1.33       1.32       0.06000   
   2    54   1     0     1     1  1.39       1.38       0.06000   
   2    55   1     0     1     1  1.45       1.44       0.06000   
   2    56   1     0     1     1  1.51       1.50       0.06000   
   2    57   1     0     1     1  1.57       1.56       0.06000   
   2    58   1     0     1     1  1.63       1.62       0.06000   
   2    59   1     0     1     1  1.69       1.68       0.06000   
   2    60   1     0     1     1  1.75       1.74       0.06000   
   2    61   1     0     1     1  1.81       1.80       0.06000   
   2    62   1     0     1     1  1.87       1.86       0.06000   
   2    63   1     0     1     1  1.93       1.92       0.06000   
   2    64   1     0     1     1  1.99       1.98       0.06000   
   2    65   1     0     1     1  2.05       2.04       0.06000   
   2    66   1     0     1     1  2.11       2.10       0.06000   
   2    67   1     0     1     1  2.17       2.16       0.06000   
   2    68   1     0     1     1  2.23       2.22       0.06000   
   2    69   1     0     1     1  2.29       2.28       0.06000   
   2    70   1     0     1     1  2.35       2.34       0.06000   
   2    71   1     0     1     1  2.41       2.40       0.06000   
   2    72   1     0     1     1  2.47       2.46       0.06000   
   2    73   1     0     1     1  2.53       2.52       0.06000   
   2    74   1     0     1     1  2.59       2.58       0.06000   
   2    75   1     0     1     1  2.65       2.64       0.06000   
   2    76   1     0     1     1  2.71       2.70       0.06000   
   2    77   1     0     1     1  2.77       2.76       0.06000   
   2    78   1     0     1     1  2.83       2.82       0.06000   
   2    79   1     0     1     1  2.89       2.88       0.06000   
   2    80   1     0     1     1  2.95       2.94       0.06000   
   2    81   1     0     1     1  3.01       3.00       0.06000   
   2    82   1     0     1     1  3.07       3.06       0.06000   
   2    83   1     0     1     1  3.13       3.12       0.06000   
   2    84   1     0     1     1  3.19       3.18       0.06000   
   2    85   1     0     1     1  3.25       3.24       0.06000   
   2    86   1     0     1     1  3.31       3.30       0.06000   
   2    87   1     0     1     1  3.37       3.36       0.06000   
   2    88   1     0     1     1  3.43       3.42       0.06000   
   2    89   1     0     1     1  3.49       3.48       0.06000   
   2    90   1     0     1     1  3.55       3.54       0.06000   
   2    91   1     0     1     1  3.61       3.60       0.06000   
   2    92   1     0     1     1  3.67       3.66       0.06000   
   2    93   1     0     1     1  3.73       3.72       0.06000   
   2    94   1     0     1     1  3.79       3.78       0.06000   
   2    95   1     0     1     1  3.85       3.84       0.06000   
   2    96   1     0     1     1  3.91       3.90       0.06000   
   2    97   1     0     1     1  3.97       3.96       0.06000   
   2    98   1     0     1     1  4.03       4.02       0.06000   
   2    99   1     0     1     1  4.09       4.08       0.06000   
   2   100   1     0     1     1  4.15       4.14       0.06000   
   2   101   1     0     1     1  4.21       4.20       0.06000   
   2   102   1     0     1     1  4.27       4.26       0.06000   
   2   103   1     0     1     1  4.33       4.32       0.06000   
   2   104   1     0     1     1  4.39       4.38       0.06000   
   2   105   1     0     1     1  4.45       4.44       0.06000   
   2   106   1     0     1     1  4.51       4.50       0.06000   
   2   107   1     0     1     1  4.57       4.56       0.06000   
   2   108   1     0     1     1  4.63       4.62       0.06000   
   2   109   1     0     1     1  4.69       4.68       0.06000   
   2   110   1     0     1     1  4.75       4.74       0.06000   
   2   111   1     0     1     1  4.81       4.80       0.06000   
   2   112   1     0     1     1  4.87       4.86       0.06000   
   2   113   1     0     1     1  4.93       4.92       0.06000   
   2   114   1     0     1     1  4.99       4.98       0.06000   
   2   115   1     0     1     1  5.05       5.04       0.06000   
   2   116   1     0     1     1  5.11       5.10       0.06000   
   2   117   1     0     1     1  5.17       5.16       0.06000   
   2   118   1     0     1     1  5.23       5.22       0.06000   
   2   119   1     0     1     1  5.29       5.28       0.06000   
   2   120   1     0     1     1  5.35       5.34       0.06000   
   2   121   1     0     1     1  5.41       5.40       0.06000   
   2   122   1     0     1     1  5.47       5.46       0.06000   
   2   123   1     0     1     1  5.53       5.52       0.06000   
   2   124   1     0     1     1  5.59       5.58       0.06000   
   2   125   1     0     1     1  5.65       5.64       0.06000   
   2   126   1     0     1     1  5.71       5.70       0.06000   
   2   127   1     0     1     1  5.77       5.76       0.06000   
   2   128   1     0     1     1  5.83       5.82       0.06000   
   2   129   1     0     1     1  5.89       5.88       0.06000   
   2   130   1     0     1     1  5.95       5.94       0.06000   
   2   131   1     0     1     1  6.01       6.00       0.06000   
   2   132   1     0     1     1  6.07       6.06       0.06000   
   2   133   1     0     1     1  6.13       6.12       0.06000   
   2   134   1     0     1     1  6.19       6.18       0.06000   
   2   135   1     0     1     1  6.25       6.24       0.06000   
   2   136   1     0     1     1  6.31       6.30       0.06000   
   2   137   1     0     1     1  6.37       6.36       0.06000   
   2   138   1     0     1     1  6.43       6.42       0.06000   
   2   139   1     0     1     1  6.49       6.48       0.06000   
   2   140   1     0     1     1  6.55       6.54       0.06000   
   2   141   1     0     1     1  6.61       6.60       0.06000   
   2   142   1     0     1     1  6.67       6.66       0.06000   
   2   143   1     0     1     1  6.73       6.72       0.06000   
   2   144   1     0     1     1  6.79       6.78       0.06000   
   2   145   1     0     1     1  6.85       6.84       0.06000   
   2   146   1     0     1     1  6.91       6.90       0.06000   
   2   147   1     0     1     1  6.97       6.96       0.06000   
   2   148   1     0     1     1  7.03       7.02       0.06000   
   2   149   1     0     1     1  7.09       7.08       0.06000   
   2   150   1     0     1     1  7.15       7.14       0.06000   
   2   151   1     0     1     1  7.21       7.20       0.06000   
   2   152   1     0     1     1  7.27       7.26       0.06000   
   2   153   1     0     1     1  7.33       7.32       0.06000   
   2   154   1     0     1     1  7.39       7.38       0.06000   
   2   155   1     0     1     1  7.45       7.44       0.06000   
   2   156   1     0     1     1  7.51       7.50       0.06000   
   2   157   1     0     1     1  7.57       7.56       0.06000   
   2   158   1     0     1     1  7.63       7.62       0.06000   
   2   159   1     0     1     1  7.69       7.68       0.06000   
   2   160   1     0     1     1  7.75       7.74       0.06000   
   2   161   1     0     1     1  7.81       7.80       0.06000   
   2   162   1     0     1     1  7.87       7.86       0.06000   
   2   163   1     0     1     1  7.93       7.92       0.06000   
   2   164   1     0     1     1  7.99       7.98       0.06000   
   2   165   1     0     1     1  8.05       8.04       0.06000   
   2   166   1     0     1     1  8.11       8.10       0.06000   
   2   167   1     0     1     1  8.17       8.16       0.06000   
   2   168   1     0     1     1  8.23       8.22       0.06000   
   2   169   1     0     1     1  8.29       8.28       0.06000   
   2   170   1     0     1     1  8.35       8.34       0.06000   
   2   171   1     0     1     1  8.41       8.40       0.06000   
   2   172   1     0     1     1  8.47       8.46       0.06000   
   2   173   1     0     1     1  8.53       8.52       0.06000   
   2   174   1     0     1     1  8.59       8.58       0.06000   
   2   175   1     0     1     1  8.65       8.64       0.06000   
   2   176   1     0     1     1  8.71       8.70       0.06000   
   2   177   1     0     1     1  8.77       8.76       0.06000   
   2   178   1     0     1     1  8.83       8.82       0.06000   
   2   179   1     0     1     1  8.89       8.88       0.06000   
   2   180   1     0     1     1  8.95       8.94       0.06000   
   2   181   1     0     1     1  9.01       9.00       0.06000   
   2   182   1     0     1     1  9.07       9.06       0.06000   
   2   183   1     0     1     1  9.13       9.12       0.06000   
   2   184   1     0     1     1  9.19       9.18       0.06000   
   2   185   1     0     1     1  9.25       9.24       0.06000   
   2   186   1     0     1     1  9.31       9.30       0.06000   
   2   187   1     0     1     1  9.37       9.36       0.06000   
   2   188   1     0     1     1  9.43       9.42       0.06000   
   2   189   1     0     1     1  9.49       9.48       0.06000   
   2   190   1     0     1     1  9.55       9.54       0.06000   
   2   191   1     0     1     1  9.61       9.60       0.06000   
   2   192   1     0     1     1  9.67       9.66       0.06000   
   2   193   1     0     1     1  9.73       9.72       0.06000   
   2   194   1     0     1     1  9.79       9.78       0.06000   
   2   195   1     0     1     1  9.85       9.84       0.06000   
   2   196   1     0     1     1  9.91       9.90       0.06000   
   2   197   1     0     1     1  9.97       9.96       0.06000   
   2   198   1     0     1     1  10.0       10.0       0.06000   
   2   199   1     0     1     1  10.1       10.1       0.06000   
   2   200   1     0     1     1  10.1       10.1       0.06000   
   2   201   1     0     1     1  10.2       10.2       0.06000   
   2   202   1     0     1     1  10.3       10.3       0.06000   
   2   203   1     0     1     1  10.3       10.3       0.06000   
   2   204   1     0     1     1  10.4       10.4       0.06000   
   2   205   1     0     1     1  10.4       10.4       0.06000   
   2   206   1     0     1     1  10.5       10.5       0.06000   
   2   207   1     0     1     1  10.6       10.6       0.06000   
   2   208   1     0     1     1  10.6       10.6       0.06000   
   2   209   1     0     1     1  10.7       10.7       0.06000   
   2   210   1     0     1     1  10.8       10.7       0.06000   
   2   211   1     0     1     1  10.8       10.8       0.06000   
   2   212   1     0     1     1  10.9       10.9       0.06000   
   2   213   1     0     1     1  10.9       10.9       0.06000   
   2   214   1     0     1     1  11.0       11.0       0.06000   
   2   215   1     0     1     1  11.1       11.0       0.06000   
   2   216   1     0     1     1  11.1       11.1       0.06000   
   2   217   1     0     1     1  11.2       11.2       0.06000   
   2   218   1     0     1     1  11.2       11.2       0.06000   
   2   219   1     0     1     1  11.3       11.3       0.06000   
   2   220   1     0     1     1  11.4       11.3       0.06000   
   2   221   1     0     1     1  11.4       11.4       0.06000   
   2   222   1     0     1     1  11.5       11.5       0.06000   
   2   223   1     0     1     1  11.5       11.5       0.06000   
   2   224   1     0     1     1  11.6       11.6       0.06000   
   2   225   1     0     1     1  11.7       11.6       0.06000   
   2   226   1     0     1     1  11.7       11.7       0.06000   
   2   227   1     0     1     1  11.8       11.8       0.06000   
   2   228   1     0     1     1  11.8       11.8       0.06000   
   2   229   1     0     1     1  11.9       11.9       0.06000   
   2   230   1     0     1     1  12.0       11.9       0.06000   
   2   231   1     0     1     1  12.0       12.0       0.06000   
                          
 THE ANALYSIS HAS COMPLETED SUCCESSFULLY
