*Heading
** Job name: drained_P100_b0_Dr60 Model name: Model-1
** Generated by: Abaqus/CAE 2025
*Preprint, echo=NO, model=NO, history=NO, contact=NO
**
** PARTS
**
*Part, name=soil
*Node
      1,           1.,           1.,           1.
      2,           1.,           0.,           1.
      3,           1.,           1.,           0.
      4,           1.,           0.,           0.
      5,           0.,           1.,           1.
      6,           0.,           0.,           1.
      7,           0.,           1.,           0.
      8,           0.,           0.,           0.
*Element, type=C3D8
1, 5, 6, 8, 7, 1, 2, 4, 3
*Nset, nset=set-all, generate
 1,  8,  1
*Elset, elset=set-all
 1,
*Nset, nset=set-initial-stress, generate
 1,  8,  1
*Elset, elset=set-initial-stress
 1,
*Nset, nset=set-X-bottom, generate
 5,  8,  1
*Elset, elset=set-X-bottom
 1,
*Nset, nset=set-Y-bottom, generate
 2,  8,  2
*Elset, elset=set-Y-bottom
 1,
*Nset, nset=set-Z-bottom
 3, 4, 7, 8
*Elset, elset=set-Z-bottom
 1,
*Nset, nset=set-X-top, generate
 1,  4,  1
*Elset, elset=set-X-top
 1,
*Nset, nset=set-Z-top
 1, 2, 5, 6
*Elset, elset=set-Z-top
 1,
*Elset, elset=_set-Y-top_S6, internal
 1,
*Surface, type=ELEMENT, name=set-Y-top
_set-Y-top_S6, S6
*Elset, elset=_Surface-P_S6, internal
 1,
*Elset, elset=_Surface-P_S2, internal
 1,
*Elset, elset=_Surface-P_S3, internal
 1,
*Surface, type=ELEMENT, name=Surface-P
_Surface-P_S6, S6
_Surface-P_S2, S2
_Surface-P_S3, S3
** Section: section
*Solid Section, elset=set-all, material=fabric_evolution_model
,
*End Part
**
**
** ASSEMBLY
**
*Assembly, name=Assembly
**
*Instance, name=instance_soil, part=soil
*End Instance
**
*End Assembly
**
** MATERIALS
**
*Material, name=fabric_evolution_model
*Density
2.,
*Depvar
     35,
1, Voidr, "void ratio: e"
2, Hard, "hardening parameter: HARD"
3, HarP, "hardening parameter: HARP"
4, F11, "FABRIC(1)"
5, F22, "FABRIC(2)"
6, F33, "FABRIC(3)"
7, F12, "FABRIC(4)"
8, F13, "FABRIC(5)"
9, F23, "FABRIC(6)"
10, Dncall, "dncall"
11, BREAK, "break"
12, fmag, "fmag"
13, ANIV, "ANISOTROPIC VARLABLE :A"
14, Ev, "volumetric strain"
15, Eq, "shear strain"
16, Axial_S, "axial stress"
17, P, "confining pressure"
18, Q, "deviatoric stress"
19, R, "Stress Ratio"
20, Kp1, "plastic1 modulus"
21, Kp2, "plastic2 modulus"
22, B, "Middle principal stress coefficient"
23, DPLA, " Dilatation1"
24, DPL2, " Dilatation2"
**
*User Material, constants=1, unsymm
 0.15,
**
** BOUNDARY CONDITIONS
** ----------------------------------------------------------------
*initial conditions, type=solution, user
*initial conditions, type=stress, user
**
** Name: BC_X_bottom Type: Displacement/Rotation
*Boundary
instance_soil.set-X-bottom, 1, 1
** Name: BC_Y_bottom Type: Displacement/Rotation
*Boundary
instance_soil.set-Y-bottom, 2, 2
** Name: BC_Z_bottom Type: Displacement/Rotation
*Boundary
instance_soil.set-Z-bottom, 3, 3
** ----------------------------------------------------------------
**
** STEP: consolidation
**
*Step, name=consolidation, nlgeom=NO, inc=1000
*Static
0.01, 0.01, 1e-08, 0.01
**
** LOADS
**
** Name: Confining pressure   Type: Pressure
*Dsload
instance_soil.Surface-P, P, 100.
**
** OUTPUT REQUESTS
**
*Restart, write, frequency=0
*Output, field, frequency=0
*Output, history, frequency=0
*End Step
** ----------------------------------------------------------------
**
** STEP: Shear
**
*Step, name=Shear, nlgeom=YES, inc=10000, unsymm=YES
*Static
1e-06, 12., 1e-08, 0.06
**
** BOUNDARY CONDITIONS
**
** Name: load-X Type: Displacement/Rotation
*Boundary
instance_soil.set-X-top, 1, 1, -0.12
**
** OUTPUT REQUESTS
**
*Restart, write, frequency=0
**
** FIELD OUTPUT: F-Output-1
**
*Output, field, time interval=0.06
*Node Output, nset=instance_soil.set-all, variable=PRESELECT
*Element Output, elset=instance_soil.set-all, directions=YES
LE, PE, PEEQ, PEMAG, S, SDV
*Contact Output, nset=instance_soil.set-all, variable=PRESELECT
*Output, history, frequency=0
*End Step
