 Abaqus/Standard 2025                  DATE 21-12ÔÂ-2025 TIME 10:49:39
 SUMMARY OF JOB INFORMATION:
 STEP  INC ATT SEVERE EQUIL TOTAL  TOTAL      STEP       INC OF       DOF    IF
               DISCON ITERS ITERS  TIME/    TIME/LPF    TIME/LPF    MONITOR RIKS
               ITERS               FREQ
   1     1   1     0     1     1  0.0100     0.0100     0.01000   
   2     1   1     0     1     1  0.0100     1.00e-06   1.000e-06 
   2     2   1     0     1     1  0.0100     2.00e-06   1.000e-06 
   2     3   1     0     1     1  0.0100     3.50e-06   1.500e-06 
   2     4   1     0     1     1  0.0100     5.75e-06   2.250e-06 
   2     5   1     0     1     1  0.0100     9.12e-06   3.375e-06 
   2     6   1     0     1     1  0.0100     1.42e-05   5.062e-06 
   2     7   1     0     1     1  0.0100     2.18e-05   7.594e-06 
   2     8   1     0     1     1  0.0100     3.32e-05   1.139e-05 
   2     9   1     0     1     1  0.0101     5.03e-05   1.709e-05 
   2    10   1     0     1     1  0.0101     7.59e-05   2.563e-05 
   2    11   1     0     1     1  0.0101     0.000114   3.844e-05 
   2    12   1     0     1     1  0.0102     0.000172   5.767e-05 
   2    13   1     0     1     1  0.0103     0.000258   8.650e-05 
   2    14   1     0     1     1  0.0104     0.000388   0.0001297 
   2    15   1     0     1     1  0.0106     0.000583   0.0001946 
   2    16   1     0     1     1  0.0109     0.000875   0.0002919 
                          
 THE ANALYSIS HAS NOT BEEN COMPLETED
